@<TRIPOS>MOLECULE
****
42 44 1 0 0
SMALL
USER_CHARGES


@<TRIPOS>ATOM
      1 F          -0.9649   -1.1888    1.1384 F         1     ****    0.0000
      2 C           0.0810   -1.7057   -1.6832 C.ar      1     ****    0.0000
      3 C           1.0807   -1.2242   -0.8976 C.ar      1     ****    0.0000
      4 C           0.3670   -2.6033   -2.6589 C.ar      1     ****    0.0000
      5 C           2.3251   -1.7412   -1.0039 C.ar      1     ****    0.0000
      6 C           1.6087   -3.0935   -2.7670 C.ar      1     ****    0.0000
      7 C           2.5640   -2.6730   -1.9292 C.ar      1     ****    0.0000
      8 N           2.0769   -3.9550   -3.5725 N.ar      1     ****    0.0000
      9 C           3.2996   -4.0853   -3.2679 C.ar      1     ****    0.0000
     10 N           3.5838   -3.3227   -2.2988 N.ar      1     ****    0.0000
     11 N          -1.1717   -1.4635   -1.6722 N.pl3     1     ****    0.0000
     12 C          -2.0784   -0.9889   -0.9121 C.ar      1     ****    0.0000
     13 C          -3.2576   -0.7326   -1.5142 C.ar      1     ****    0.0000
     14 C          -2.0048   -0.7902    0.4213 C.ar      1     ****    0.0000
     15 C          -4.2968   -0.2069   -0.8472 C.ar      1     ****    0.0000
     16 C          -3.0462   -0.2739    1.0962 C.ar      1     ****    0.0000
     17 C          -4.1852    0.0454    0.4646 C.ar      1     ****    0.0000
     18 F          -0.5674   -3.0599   -3.4854 F         1     ****    0.0000
     19 Br         -5.6450    0.7708    1.4260 Br        1     ****    0.0000
     20 C           4.9143   -3.2068   -1.6927 C.3       1     ****    0.0000
     21 C           0.9320   -0.1442   -0.0730 C.2       1     ****    0.0000
     22 N           1.7695   -0.1114    1.0180 N.am      1     ****    0.0000
     23 O           0.0857    0.7085   -0.2209 O.2       1     ****    0.0000
     24 O           1.7423    0.8037    1.9679 O.3       1     ****    0.0000
     25 C           2.5339    1.9232    1.6682 C.3       1     ****    0.0000
     26 C           2.3649    2.9567    2.7660 C.3       1     ****    0.0000
     27 O           3.1999    4.0642    2.4956 O.3       1     ****    0.0000
     28 H           3.1892   -1.3854   -0.4217 H         1     ****    0.0000
     29 H           4.0196   -4.7482   -3.7601 H         1     ****    0.0000
     30 H          -1.6093   -1.7846   -2.5758 H         1     ****    0.0000
     31 H          -3.3949   -0.9181   -2.5946 H         1     ****    0.0000
     32 H          -5.2328    0.0113   -1.3885 H         1     ****    0.0000
     33 H          -2.9590   -0.1401    2.1877 H         1     ****    0.0000
     34 H           5.6450   -3.9077   -2.1558 H         1     ****    0.0000
     35 H           5.3084   -2.1729   -1.8214 H         1     ****    0.0000
     36 H           4.8667   -3.4414   -0.6048 H         1     ****    0.0000
     37 H           2.4104   -0.8839    1.1212 H         1     ****    0.0000
     38 H           3.5991    1.6005    1.5972 H         1     ****    0.0000
     39 H           2.2180    2.3518    0.6888 H         1     ****    0.0000
     40 H           1.3175    3.3299    2.8174 H         1     ****    0.0000
     41 H           2.6585    2.5510    3.7601 H         1     ****    0.0000
     42 H           3.0475    4.7482    3.1518 H         1     ****    0.0000
@<TRIPOS>BOND
     1     1    14     1
     2     2     3     2
     3     2     4     1
     4     2    11     1
     5     3     5     1
     6     3    21     1
     7     4     6     2
     8     4    18     1
     9     5     7     2
    10     5    28     1
    11     6     7     1
    12     6     8     1
    13     7    10     1
    14     8     9     2
    15     9    10     1
    16     9    29     1
    17    10    20     1
    18    11    12     1
    19    11    30     1
    20    12    13     1
    21    12    14     2
    22    13    15     2
    23    13    31     1
    24    14    16     1
    25    15    17     1
    26    15    32     1
    27    16    17     2
    28    16    33     1
    29    17    19     1
    30    20    34     1
    31    20    35     1
    32    20    36     1
    33    21    22     1
    34    21    23     2
    35    22    24     1
    36    22    37     1
    37    24    25     1
    38    25    26     1
    39    25    38     1
    40    25    39     1
    41    26    27     1
    42    26    40     1
    43    26    41     1
    44    27    42     1
