@<TRIPOS>MOLECULE
****
57 61 1 0 0
SMALL
USER_CHARGES


@<TRIPOS>ATOM
      1 C           2.7453   -2.7360   -1.7384 C.ar      1     ****    0.0000
      2 C           2.5350   -1.6673   -2.5178 C.ar      1     ****    0.0000
      3 C           1.3099   -1.3648   -2.9803 C.ar      1     ****    0.0000
      4 C           0.2635   -2.1544   -2.6448 C.ar      1     ****    0.0000
      5 C           0.5041   -3.2289   -1.8632 C.ar      1     ****    0.0000
      6 C           1.7267   -3.5342   -1.4002 C.ar      1     ****    0.0000
      7 N           3.9583   -2.8466   -1.4115 N.ar      1     ****    0.0000
      8 C           4.6004   -1.8914   -1.9360 C.ar      1     ****    0.0000
      9 S           3.8018   -0.9640   -2.7395 S.2       1     ****    0.0000
     10 N           5.9217   -1.6667   -1.8078 N.am      1     ****    0.0000
     11 C           6.8870   -2.3274   -1.1111 C.2       1     ****    0.0000
     12 C           6.5492   -3.4653   -0.2505 C.3       1     ****    0.0000
     13 O           8.0269   -1.9458   -1.2279 O.2       1     ****    0.0000
     14 C           7.2840   -3.4325    1.0696 C.3       1     ****    0.0000
     15 C           5.8401   -3.0059    1.0010 C.3       1     ****    0.0000
     16 C           1.1005   -0.3082   -3.7434 C.1       1     ****    0.0000
     17 N           0.8797    0.6254   -4.3941 N.1       1     ****    0.0000
     18 O          -1.0124   -1.9034   -3.0861 O.3       1     ****    0.0000
     19 C          -1.6365   -0.8199   -2.5216 C.ar      1     ****    0.0000
     20 C          -1.6273   -0.5835   -1.1947 C.ar      1     ****    0.0000
     21 C          -2.2359    0.4775   -0.6368 C.ar      1     ****    0.0000
     22 C          -2.9001    1.3312   -1.4416 C.ar      1     ****    0.0000
     23 C          -2.9340    1.1174   -2.7645 C.ar      1     ****    0.0000
     24 C          -2.3090    0.0553   -3.2914 C.ar      1     ****    0.0000
     25 F          -3.5223    2.3841   -0.9295 F         1     ****    0.0000
     26 N          -2.2612    0.7871    0.6763 N.am      1     ****    0.0000
     27 C          -1.7057    0.2185    1.7852 C.2       1     ****    0.0000
     28 C          -2.0645    0.9331    3.0803 C.3       1     ****    0.0000
     29 O          -0.9947   -0.7539    1.7710 O.2       1     ****    0.0000
     30 C          -3.4509    1.5324    2.9909 C.ar      1     ****    0.0000
     31 C          -3.6198    2.8382    2.7218 C.ar      1     ****    0.0000
     32 C          -4.8527    3.3482    2.5922 C.ar      1     ****    0.0000
     33 C          -5.9259    2.5570    2.7382 C.ar      1     ****    0.0000
     34 C          -5.7884    1.2525    3.0361 C.ar      1     ****    0.0000
     35 C          -4.5406    0.7571    3.1278 C.ar      1     ****    0.0000
     36 C          -6.9931    0.3437    3.1304 C.3       1     ****    0.0000
     37 F          -8.0269    0.7881    2.4330 F         1     ****    0.0000
     38 F          -6.7310   -0.8863    2.7159 F         1     ****    0.0000
     39 F          -7.3797    0.2568    4.3941 F         1     ****    0.0000
     40 H          -0.3384   -3.8864   -1.5875 H         1     ****    0.0000
     41 H           1.8895   -4.4165   -0.7606 H         1     ****    0.0000
     42 H           6.2304   -0.8636   -2.3352 H         1     ****    0.0000
     43 H           6.3141   -4.4167   -0.7330 H         1     ****    0.0000
     44 H           7.5034   -4.3941    1.5320 H         1     ****    0.0000
     45 H           8.0186   -2.6558    1.2734 H         1     ****    0.0000
     46 H           5.6224   -1.9468    1.1314 H         1     ****    0.0000
     47 H           5.0939   -3.6797    1.4200 H         1     ****    0.0000
     48 H          -1.0935   -1.3112   -0.5705 H         1     ****    0.0000
     49 H          -3.4782    1.8172   -3.4203 H         1     ****    0.0000
     50 H          -2.3491   -0.1051   -4.3821 H         1     ****    0.0000
     51 H          -2.8159    1.6217    0.8168 H         1     ****    0.0000
     52 H          -2.0118    0.2217    3.9366 H         1     ****    0.0000
     53 H          -1.2949    1.7175    3.2644 H         1     ****    0.0000
     54 H          -2.7460    3.4954    2.5816 H         1     ****    0.0000
     55 H          -4.9836    4.4167    2.3517 H         1     ****    0.0000
     56 H          -6.9287    2.9966    2.6105 H         1     ****    0.0000
     57 H          -4.3967   -0.3187    3.3189 H         1     ****    0.0000
@<TRIPOS>BOND
     1     1     2     1
     2     1     6     2
     3     1     7     1
     4     2     3     2
     5     2     9     1
     6     3     4     1
     7     3    16     1
     8     4     5     2
     9     4    18     1
    10     5     6     1
    11     5    40     1
    12     6    41     1
    13     7     8     2
    14     8     9     1
    15     8    10     1
    16    10    11     1
    17    10    42     1
    18    11    12     1
    19    11    13     2
    20    12    14     1
    21    12    15     1
    22    12    43     1
    23    14    15     1
    24    14    44     1
    25    14    45     1
    26    15    46     1
    27    15    47     1
    28    16    17     3
    29    18    19     1
    30    19    20     1
    31    19    24     2
    32    20    21     2
    33    20    48     1
    34    21    22     1
    35    21    26     1
    36    22    23     2
    37    22    25     1
    38    23    24     1
    39    23    49     1
    40    24    50     1
    41    26    27     1
    42    26    51     1
    43    27    28     1
    44    27    29     2
    45    28    30     1
    46    28    52     1
    47    28    53     1
    48    30    31     1
    49    30    35     2
    50    31    32     2
    51    31    54     1
    52    32    33     1
    53    32    55     1
    54    33    34     2
    55    33    56     1
    56    34    35     1
    57    34    36     1
    58    35    57     1
    59    36    37     1
    60    36    38     1
    61    36    39     1
