@<TRIPOS>MOLECULE
****
66 70 1 0 0
SMALL
USER_CHARGES


@<TRIPOS>ATOM
      1 C          -1.9202   -0.3148    0.9149 C.ar      1     ****    0.0000
      2 C          -0.6341   -1.0197    0.6353 C.3       1     ****    0.0000
      3 C          -1.7011    0.9861    1.0917 C.ar      1     ****    0.0000
      4 C           0.3047    0.2027    0.5656 C.3       1     ****    0.0000
      5 O          -0.5243    1.3112    0.9516 O.3       1     ****    0.0000
      6 C          -0.1334   -1.9254    1.7499 C.3       1     ****    0.0000
      7 C           1.3361   -1.5405    1.9606 C.3       1     ****    0.0000
      8 C           1.3388   -0.0237    1.6937 C.3       1     ****    0.0000
      9 C           1.8679   -1.9578    3.3253 C.2       1     ****    0.0000
     10 O           1.2891   -2.7598    4.0165 O.2       1     ****    0.0000
     11 C           0.9633    0.4383   -0.7858 C.ar      1     ****    0.0000
     12 C           1.6546   -0.5244   -1.4199 C.ar      1     ****    0.0000
     13 C           0.9119    1.6367   -1.3935 C.ar      1     ****    0.0000
     14 C           2.2500   -0.2974   -2.5998 C.ar      1     ****    0.0000
     15 C           1.5101    1.8572   -2.5750 C.ar      1     ****    0.0000
     16 C           2.1991    0.8960   -3.2206 C.ar      1     ****    0.0000
     17 O           2.8412    1.0444   -4.4266 O.3       1     ****    0.0000
     18 C           2.7990    2.2992   -5.0658 C.3       1     ****    0.0000
     19 O          -0.8432   -1.6654    2.9397 O.3       1     ****    0.0000
     20 C           4.9829    2.0257    1.0379 C.ar      1     ****    0.0000
     21 C           4.8908    0.7239    0.7309 C.ar      1     ****    0.0000
     22 C           3.9158    2.6593    1.5451 C.ar      1     ****    0.0000
     23 C           3.7400    0.0640    0.9319 C.ar      1     ****    0.0000
     24 C           2.7710    1.9888    1.7450 C.ar      1     ****    0.0000
     25 C           2.6605    0.6803    1.4487 C.ar      1     ****    0.0000
     26 N           3.0509   -1.3640    3.6898 N.am      1     ****    0.0000
     27 O           3.5986   -1.4518    4.8864 O.3       1     ****    0.0000
     28 C           4.4488   -2.5682    5.0129 C.3       1     ****    0.0000
     29 O          -0.7791   -1.7278   -0.5693 O.3       1     ****    0.0000
     30 C          -3.1378   -0.8723    0.9777 C.ar      1     ****    0.0000
     31 C          -4.1278   -0.0144    1.2990 C.ar      1     ****    0.0000
     32 C          -2.7159    1.8058    1.3908 C.ar      1     ****    0.0000
     33 C          -3.9661    1.3115    1.5086 C.ar      1     ****    0.0000
     34 O          -3.2593   -2.2231    0.7689 O.3       1     ****    0.0000
     35 C          -4.4591   -2.8562    1.1439 C.3       1     ****    0.0000
     36 O          -5.0774    2.0595    1.8213 O.3       1     ****    0.0000
     37 C          -4.9232    3.4396    2.0586 C.3       1     ****    0.0000
     38 H          -0.2728   -3.0068    1.5269 H         1     ****    0.0000
     39 H           1.9305   -2.0947    1.1994 H         1     ****    0.0000
     40 H           0.9159    0.4089    2.6369 H         1     ****    0.0000
     41 H           1.7526   -1.5258   -0.9738 H         1     ****    0.0000
     42 H           0.3765    2.4773   -0.9232 H         1     ****    0.0000
     43 H           2.8082   -1.1206   -3.0785 H         1     ****    0.0000
     44 H           1.4187    2.8697   -2.9995 H         1     ****    0.0000
     45 H           3.3729    2.2161   -6.0160 H         1     ****    0.0000
     46 H           1.7494    2.5705   -5.3172 H         1     ****    0.0000
     47 H           3.2872    3.0729   -4.4321 H         1     ****    0.0000
     48 H          -0.5328   -2.2586    3.6288 H         1     ****    0.0000
     49 H           5.9264    2.5714    0.8707 H         1     ****    0.0000
     50 H           5.7632    0.1969    0.3090 H         1     ****    0.0000
     51 H           3.9797    3.7314    1.7959 H         1     ****    0.0000
     52 H           3.7095   -1.0021    0.6620 H         1     ****    0.0000
     53 H           1.9056    2.5330    2.1589 H         1     ****    0.0000
     54 H           3.4792   -0.7428    3.0187 H         1     ****    0.0000
     55 H           4.9297   -2.5314    6.0160 H         1     ****    0.0000
     56 H           3.8604   -3.5087    4.9266 H         1     ****    0.0000
     57 H           5.2372   -2.5335    4.2275 H         1     ****    0.0000
     58 H          -1.6549   -2.1268   -0.5458 H         1     ****    0.0000
     59 H          -5.1571   -0.3957    1.3979 H         1     ****    0.0000
     60 H          -2.4881    2.8727    1.5341 H         1     ****    0.0000
     61 H          -4.3304   -3.9502    0.9844 H         1     ****    0.0000
     62 H          -4.6652   -2.6786    2.2230 H         1     ****    0.0000
     63 H          -5.2978   -2.5094    0.5004 H         1     ****    0.0000
     64 H          -5.9264    3.8567    2.3012 H         1     ****    0.0000
     65 H          -4.2559    3.6097    2.9329 H         1     ****    0.0000
     66 H          -4.5477    3.9502    1.1439 H         1     ****    0.0000
@<TRIPOS>BOND
     1     1     2     1
     2     1     3     1
     3     1    30     2
     4     2     4     1
     5     2     6     1
     6     2    29     1
     7     3     5     1
     8     3    32     2
     9     4     5     1
    10     4     8     1
    11     4    11     1
    12     6     7     1
    13     6    19     1
    14     6    38     1
    15     7     8     1
    16     7     9     1
    17     7    39     1
    18     8    25     1
    19     8    40     1
    20     9    10     2
    21     9    26     1
    22    11    12     1
    23    11    13     2
    24    12    14     2
    25    12    41     1
    26    13    15     1
    27    13    42     1
    28    14    16     1
    29    14    43     1
    30    15    16     2
    31    15    44     1
    32    16    17     1
    33    17    18     1
    34    18    45     1
    35    18    46     1
    36    18    47     1
    37    19    48     1
    38    20    21     1
    39    20    22     2
    40    20    49     1
    41    21    23     2
    42    21    50     1
    43    22    24     1
    44    22    51     1
    45    23    25     1
    46    23    52     1
    47    24    25     2
    48    24    53     1
    49    26    27     1
    50    26    54     1
    51    27    28     1
    52    28    55     1
    53    28    56     1
    54    28    57     1
    55    29    58     1
    56    30    31     1
    57    30    34     1
    58    31    33     2
    59    31    59     1
    60    32    33     1
    61    32    60     1
    62    33    36     1
    63    34    35     1
    64    35    61     1
    65    35    62     1
    66    35    63     1
    67    36    37     1
    68    37    64     1
    69    37    65     1
    70    37    66     1
