@<TRIPOS>MOLECULE
****
42 46 1 0 0
SMALL
USER_CHARGES


@<TRIPOS>ATOM
      1 C          -4.0459   -0.0555    1.2542 C.2       1     ****    0.0000
      2 N          -3.2685   -0.9350    1.9453 N.am      1     ****    0.0000
      3 N          -1.9592   -1.1322    1.6776 N.2       1     ****    0.0000
      4 C          -1.3883   -0.4169    0.8084 C.2       1     ****    0.0000
      5 C          -2.0682    0.5131    0.1138 C.ar      1     ****    0.0000
      6 C          -1.4324    1.2620   -0.8083 C.ar      1     ****    0.0000
      7 C          -2.1264    2.1301   -1.5636 C.ar      1     ****    0.0000
      8 C          -3.4461    2.2857   -1.3861 C.ar      1     ****    0.0000
      9 C          -4.0705    1.5679   -0.4405 C.ar      1     ****    0.0000
     10 C          -3.3930    0.6811    0.3124 C.ar      1     ****    0.0000
     11 C           0.0555   -0.7503    0.5224 C.3       1     ****    0.0000
     12 C           0.7593    0.4070   -0.1950 C.3       1     ****    0.0000
     13 N          -0.1787    1.2022   -1.0046 N.pl3     1     ****    0.0000
     14 O          -5.2216    0.0043    1.5220 O.2       1     ****    0.0000
     15 N           1.0070   -0.7122    2.8986 N.ar      1     ****    0.0000
     16 N           1.7738   -1.4017    3.5764 N.ar      1     ****    0.0000
     17 C           2.0881   -2.3392    2.7867 C.ar      1     ****    0.0000
     18 N           1.5414   -2.2473    1.6495 N.ar      1     ****    0.0000
     19 C           0.8403   -1.1952    1.7333 C.ar      1     ****    0.0000
     20 C           0.3320    0.5185    3.3426 C.3       1     ****    0.0000
     21 C           1.9112   -0.0726   -1.0519 C.ar      1     ****    0.0000
     22 C           3.1720   -0.0532   -0.5837 C.ar      1     ****    0.0000
     23 C           4.1948   -0.4866   -1.3366 C.ar      1     ****    0.0000
     24 C           3.9737   -0.9517   -2.5756 C.ar      1     ****    0.0000
     25 C           2.7185   -0.9813   -3.0490 C.ar      1     ****    0.0000
     26 C           1.6987   -0.5476   -2.2922 C.ar      1     ****    0.0000
     27 F           4.9804   -1.3809   -3.3194 F         1     ****    0.0000
     28 F          -4.1203    3.1517   -2.1270 F         1     ****    0.0000
     29 H          -3.7443   -1.4699    2.6545 H         1     ****    0.0000
     30 H          -1.6217    2.7444   -2.3289 H         1     ****    0.0000
     31 H          -5.1542    1.7278   -0.3159 H         1     ****    0.0000
     32 H          -0.0145   -1.6037   -0.1990 H         1     ****    0.0000
     33 H           1.1368    1.1462    0.5515 H         1     ****    0.0000
     34 H           0.2181    1.8211   -1.7536 H         1     ****    0.0000
     35 H           2.7739   -3.1517    3.0603 H         1     ****    0.0000
     36 H           1.0629    1.1822    3.8580 H         1     ****    0.0000
     37 H          -0.1142    1.1071    2.5134 H         1     ****    0.0000
     38 H          -0.4775    0.2628    4.0636 H         1     ****    0.0000
     39 H           3.3763    0.3183    0.4343 H         1     ****    0.0000
     40 H           5.2216   -0.4634   -0.9352 H         1     ****    0.0000
     41 H           2.5249   -1.3676   -4.0636 H         1     ****    0.0000
     42 H           0.6752   -0.5906   -2.6999 H         1     ****    0.0000
@<TRIPOS>BOND
     1     1     2     1
     2     1    10     1
     3     1    14     2
     4     2     3     1
     5     2    29     1
     6     3     4     2
     7     4     5     1
     8     4    11     1
     9     5     6     2
    10     5    10     1
    11     6     7     1
    12     6    13     1
    13     7     8     2
    14     7    30     1
    15     8     9     1
    16     8    28     1
    17     9    10     2
    18     9    31     1
    19    11    12     1
    20    11    19     1
    21    11    32     1
    22    12    13     1
    23    12    21     1
    24    12    33     1
    25    13    34     1
    26    15    16     1
    27    15    19     1
    28    15    20     1
    29    16    17     2
    30    17    18     1
    31    17    35     1
    32    18    19     2
    33    20    36     1
    34    20    37     1
    35    20    38     1
    36    21    22     1
    37    21    26     2
    38    22    23     2
    39    22    39     1
    40    23    24     1
    41    23    40     1
    42    24    25     2
    43    24    27     1
    44    25    26     1
    45    25    41     1
    46    26    42     1
