@<TRIPOS>MOLECULE
****
48 50 1 0 0
SMALL
USER_CHARGES


@<TRIPOS>ATOM
      1 C          -1.4591    1.4007    1.9454 C.3       1     ****    0.0000
      2 N          -0.6403    1.2589    0.6997 N.am      1     ****    0.0000
      3 C          -1.5239    1.3197   -0.2097 C.2       1     ****    0.0000
      4 N          -2.5980    0.7055    0.0899 N.am      1     ****    0.0000
      5 C          -2.8209    1.1487    1.2612 C.2       1     ****    0.0000
      6 C          -3.2607   -0.1268   -0.6245 C.ar      1     ****    0.0000
      7 C          -2.8383   -0.4863   -1.8540 C.ar      1     ****    0.0000
      8 C          -4.3865   -0.7404   -0.2002 C.ar      1     ****    0.0000
      9 C          -5.0981   -1.6177   -0.9357 C.ar      1     ****    0.0000
     10 C          -4.6484   -1.9236   -2.1686 C.ar      1     ****    0.0000
     11 C          -3.5167   -1.3577   -2.6147 C.ar      1     ****    0.0000
     12 O          -3.8939    1.3764    1.7761 O.2       1     ****    0.0000
     13 C          -5.2585   -2.7721   -2.9720 C.1       1     ****    0.0000
     14 N          -5.7837   -3.5163   -3.6884 N.1       1     ****    0.0000
     15 C          -6.3526   -2.2643   -0.3734 C.3       1     ****    0.0000
     16 F          -6.2429   -3.5821   -0.4375 F         1     ****    0.0000
     17 F          -6.6263   -1.9464    0.8819 F         1     ****    0.0000
     18 F          -7.3957   -1.9235   -1.1145 F         1     ****    0.0000
     19 S          -1.4783    2.4381   -1.3333 S.2       1     ****    0.0000
     20 C          -1.3736    0.2747    2.9955 C.3       1     ****    0.0000
     21 C          -1.4489    2.8042    2.5676 C.3       1     ****    0.0000
     22 C           0.6247    1.0858    0.6941 C.ar      1     ****    0.0000
     23 C           1.2653    0.8273   -0.4633 C.ar      1     ****    0.0000
     24 C           2.5918    0.6305   -0.5568 C.ar      1     ****    0.0000
     25 C           3.3794    0.6854    0.5388 C.ar      1     ****    0.0000
     26 C           2.7524    0.9488    1.7020 C.ar      1     ****    0.0000
     27 C           1.4251    1.1401    1.7731 C.ar      1     ****    0.0000
     28 C           4.7333    0.4919    0.4723 C.2       1     ****    0.0000
     29 N           5.4157    0.5711    1.6566 N.am      1     ****    0.0000
     30 C           6.8648    0.3861    1.7403 C.3       1     ****    0.0000
     31 O           5.3457    0.2587   -0.5445 O.2       1     ****    0.0000
     32 F           3.0661    0.3729   -1.7677 F         1     ****    0.0000
     33 H          -1.9073   -0.0919   -2.2921 H         1     ****    0.0000
     34 H          -4.7706   -0.5461    0.8099 H         1     ****    0.0000
     35 H          -3.1236   -1.6112   -3.6154 H         1     ****    0.0000
     36 H          -2.2452    0.3045    3.6884 H         1     ****    0.0000
     37 H          -1.3653   -0.7274    2.5086 H         1     ****    0.0000
     38 H          -0.4832    0.3337    3.6536 H         1     ****    0.0000
     39 H          -0.4488    3.0659    2.9758 H         1     ****    0.0000
     40 H          -1.7117    3.5821    1.8153 H         1     ****    0.0000
     41 H          -2.1764    2.8833    3.4066 H         1     ****    0.0000
     42 H           0.7042    0.7412   -1.4086 H         1     ****    0.0000
     43 H           3.2890    1.0321    2.6601 H         1     ****    0.0000
     44 H           1.0290    1.3766    2.7691 H         1     ****    0.0000
     45 H           4.9095    0.7643    2.5169 H         1     ****    0.0000
     46 H           7.3957    1.1567    1.1368 H         1     ****    0.0000
     47 H           7.1828    0.4948    2.8015 H         1     ****    0.0000
     48 H           7.1529   -0.6318    1.3929 H         1     ****    0.0000
@<TRIPOS>BOND
     1     1     2     1
     2     1     5     1
     3     1    20     1
     4     1    21     1
     5     2     3     1
     6     2    22     1
     7     3     4     1
     8     3    19     2
     9     4     5     1
    10     4     6     1
    11     5    12     2
    12     6     7     1
    13     6     8     2
    14     7    11     2
    15     7    33     1
    16     8     9     1
    17     8    34     1
    18     9    10     2
    19     9    15     1
    20    10    11     1
    21    10    13     1
    22    11    35     1
    23    13    14     3
    24    15    16     1
    25    15    17     1
    26    15    18     1
    27    20    36     1
    28    20    37     1
    29    20    38     1
    30    21    39     1
    31    21    40     1
    32    21    41     1
    33    22    23     1
    34    22    27     2
    35    23    24     2
    36    23    42     1
    37    24    25     1
    38    24    32     1
    39    25    26     2
    40    25    28     1
    41    26    27     1
    42    26    43     1
    43    27    44     1
    44    28    29     1
    45    28    31     2
    46    29    30     1
    47    29    45     1
    48    30    46     1
    49    30    47     1
    50    30    48     1
