@<TRIPOS>MOLECULE
****
95 99 1 0 0
SMALL
USER_CHARGES


@<TRIPOS>ATOM
      1 C           1.0998    0.1273    1.0199 C.3       1     ****    0.0000
      2 C           1.2927    1.5058    0.3457 C.3       1     ****    0.0000
      3 C           2.3282    2.4462    0.9839 C.3       1     ****    0.0000
      4 C           1.8353    3.2979    2.1644 C.3       1     ****    0.0000
      5 C          -1.1551   -1.7893   -0.8547 C.ar      1     ****    0.0000
      6 C          -0.8094   -0.8054   -0.0096 C.ar      1     ****    0.0000
      7 C          -2.4379   -2.0786   -1.1144 C.ar      1     ****    0.0000
      8 C          -1.7763   -0.0961    0.5963 C.ar      1     ****    0.0000
      9 C          -3.3977   -1.3593   -0.5127 C.ar      1     ****    0.0000
     10 C          -3.0652   -0.3753    0.3385 C.ar      1     ****    0.0000
     11 C           0.0572   -2.5031   -1.4006 C.3       1     ****    0.0000
     12 C           1.0867   -1.6036   -0.7052 C.2       1     ****    0.0000
     13 N           0.4657   -0.7667    0.0373 N.3       1     ****    0.0000
     14 C           0.1121   -2.4000   -2.9319 C.3       1     ****    0.0000
     15 C           0.1024   -3.9565   -0.9066 C.3       1     ****    0.0000
     16 C           2.3913   -1.8358   -0.9616 C.2       1     ****    0.0000
     17 C           3.5093   -1.1543   -0.6475 C.2       1     ****    0.0000
     18 C           4.7922   -1.5471   -0.8538 C.2       1     ****    0.0000
     19 C           7.1317   -1.2512   -0.4384 C.2       1     ****    0.0000
     20 C           5.8586   -0.7787   -0.5045 C.2       1     ****    0.0000
     21 C           8.1658   -0.5013    0.0137 C.2       1     ****    0.0000
     22 C           9.3762   -0.9517    0.3917 C.2       1     ****    0.0000
     23 C          10.4150   -0.2569    0.8967 C.2       1     ****    0.0000
     24 N          10.6463    1.0386    0.9451 N.pl3     1     ****    1.0000
     25 C          11.6563    1.2881    1.7429 C.ar      1     ****    0.0000
     26 C          12.2237    0.1585    2.1815 C.ar      1     ****    0.0000
     27 C          11.5260   -1.0317    1.6040 C.3       1     ****    0.0000
     28 C          13.2852    0.1563    2.9996 C.ar      1     ****    0.0000
     29 C          13.7870    1.3321    3.4062 C.ar      1     ****    0.0000
     30 C          12.1623    2.4583    2.1652 C.ar      1     ****    0.0000
     31 C          13.2217    2.4771    2.9915 C.ar      1     ****    0.0000
     32 C           9.9477    2.1057    0.0986 C.3       1     ****    0.0000
     33 C          10.8917    3.1285   -0.5730 C.3       1     ****    0.0000
     34 C          10.5251    3.5001   -2.0239 C.3       1     ****    0.0000
     35 C          11.4200    4.6421   -2.5436 C.3       1     ****    0.0000
     36 C          12.4267   -1.7758    0.6081 C.3       1     ****    0.0000
     37 C          11.0112   -1.9535    2.7215 C.3       1     ****    0.0000
     38 C           5.0281   -2.9345   -1.4291 C.3       1     ****    0.0000
     39 C           6.4566   -3.1329   -1.9244 C.3       1     ****    0.0000
     40 C           7.4033   -2.6967   -0.8128 C.3       1     ****    0.0000
     41 Cl          5.5737    0.8671    0.0063 Cl        1     ****    0.0000
     42 S           1.0079    2.4341    3.5697 S.2       1     ****    0.0000
     43 O           1.5083    3.1195    4.7510 O.2       1     ****    0.0000
     44 O          -0.3965    2.4272    3.1904 O.2       1     ****    0.0000
     45 O           1.8462    1.0646    3.1350 O.2       1     ****   -1.0000
     46 S          11.3490    4.9330   -4.3798 S.2       1     ****    0.0000
     47 O          12.0995    6.1837   -4.2847 O.2       1     ****    0.0000
     48 O           9.8903    4.9401   -4.4246 O.2       1     ****    0.0000
     49 O          12.1402    3.6718   -5.1073 O.2       1     ****   -1.0000
     50 H           2.0365   -0.3460    1.3818 H         1     ****    0.0000
     51 H           0.4122    0.1541    1.8902 H         1     ****    0.0000
     52 H           1.6349    1.3203   -0.7024 H         1     ****    0.0000
     53 H           0.3164    2.0345    0.2474 H         1     ****    0.0000
     54 H           2.6847    3.1600    0.1994 H         1     ****    0.0000
     55 H           3.2331    1.8681    1.2778 H         1     ****    0.0000
     56 H           2.7030    3.8654    2.5791 H         1     ****    0.0000
     57 H           1.1130    4.0615    1.7885 H         1     ****    0.0000
     58 H          -2.7006   -2.8967   -1.8031 H         1     ****    0.0000
     59 H          -1.5576    0.7259    1.2938 H         1     ****    0.0000
     60 H          -4.4592   -1.5813   -0.7131 H         1     ****    0.0000
     61 H          -3.8609    0.2104    0.8298 H         1     ****    0.0000
     62 H           0.0683   -1.3386   -3.2671 H         1     ****    0.0000
     63 H           1.0438   -2.8472   -3.3443 H         1     ****    0.0000
     64 H          -0.7401   -2.9399   -3.4026 H         1     ****    0.0000
     65 H           0.0582   -4.0075    0.2053 H         1     ****    0.0000
     66 H          -0.7556   -4.5423   -1.3068 H         1     ****    0.0000
     67 H           1.0301   -4.4770   -1.2327 H         1     ****    0.0000
     68 H           2.5349   -2.7538   -1.5484 H         1     ****    0.0000
     69 H           3.3350   -0.1908   -0.1630 H         1     ****    0.0000
     70 H           8.0049    0.5616    0.2170 H         1     ****    0.0000
     71 H           9.5217   -2.0422    0.3952 H         1     ****    0.0000
     72 H          13.7396   -0.7906    3.3303 H         1     ****    0.0000
     73 H          14.6572    1.3568    4.0832 H         1     ****    0.0000
     74 H          11.7158    3.4196    1.8777 H         1     ****    0.0000
     75 H          13.6277    3.4419    3.3403 H         1     ****    0.0000
     76 H           9.4700    1.6043   -0.7739 H         1     ****    0.0000
     77 H           9.1559    2.6165    0.6935 H         1     ****    0.0000
     78 H          11.9288    2.7152   -0.5996 H         1     ****    0.0000
     79 H          10.9062    4.0717    0.0222 H         1     ****    0.0000
     80 H          10.6436    2.6001   -2.6736 H         1     ****    0.0000
     81 H           9.4538    3.8107   -2.0636 H         1     ****    0.0000
     82 H          12.4863    4.4126   -2.3062 H         1     ****    0.0000
     83 H          11.1516    5.5850   -2.0098 H         1     ****    0.0000
     84 H          12.8064   -1.0924   -0.1855 H         1     ****    0.0000
     85 H          13.3083   -2.2226    1.1208 H         1     ****    0.0000
     86 H          11.8797   -2.6052    0.1063 H         1     ****    0.0000
     87 H          10.3499   -1.4015    3.4278 H         1     ****    0.0000
     88 H          10.4355   -2.8177    2.3227 H         1     ****    0.0000
     89 H          11.8523   -2.3828    3.3109 H         1     ****    0.0000
     90 H           4.7861   -3.6923   -0.6460 H         1     ****    0.0000
     91 H           4.3890   -3.1241   -2.3236 H         1     ****    0.0000
     92 H           6.6325   -4.1991   -2.2047 H         1     ****    0.0000
     93 H           6.6372   -2.5123   -2.8359 H         1     ****    0.0000
     94 H           7.2854   -3.3432    0.0883 H         1     ****    0.0000
     95 H           8.4297   -2.8413   -1.2252 H         1     ****    0.0000
@<TRIPOS>BOND
     1     1     2     1
     2     1    13     1
     3     1    50     1
     4     1    51     1
     5     2     3     1
     6     2    52     1
     7     2    53     1
     8     3     4     1
     9     3    54     1
    10     3    55     1
    11     4    42     1
    12     4    56     1
    13     4    57     1
    14     5     6     1
    15     5     7     2
    16     5    11     1
    17     6     8     2
    18     6    13     1
    19     7     9     1
    20     7    58     1
    21     8    10     1
    22     8    59     1
    23     9    10     2
    24     9    60     1
    25    10    61     1
    26    11    12     1
    27    11    14     1
    28    11    15     1
    29    12    13     1
    30    12    16     2
    31    14    62     1
    32    14    63     1
    33    14    64     1
    34    15    65     1
    35    15    66     1
    36    15    67     1
    37    16    17     1
    38    16    68     1
    39    17    18     2
    40    17    69     1
    41    18    20     1
    42    18    38     1
    43    19    20     2
    44    19    21     1
    45    19    40     1
    46    20    41     1
    47    21    22     2
    48    21    70     1
    49    22    23     1
    50    22    71     1
    51    23    24     2
    52    23    27     1
    53    24    25     1
    54    24    32     1
    55    25    26     2
    56    25    30     1
    57    26    27     1
    58    26    28     1
    59    27    36     1
    60    27    37     1
    61    28    29     2
    62    28    72     1
    63    29    31     1
    64    29    73     1
    65    30    31     2
    66    30    74     1
    67    31    75     1
    68    32    33     1
    69    32    76     1
    70    32    77     1
    71    33    34     1
    72    33    78     1
    73    33    79     1
    74    34    35     1
    75    34    80     1
    76    34    81     1
    77    35    46     1
    78    35    82     1
    79    35    83     1
    80    36    84     1
    81    36    85     1
    82    36    86     1
    83    37    87     1
    84    37    88     1
    85    37    89     1
    86    38    39     1
    87    38    90     1
    88    38    91     1
    89    39    40     1
    90    39    92     1
    91    39    93     1
    92    40    94     1
    93    40    95     1
    94    42    43     2
    95    42    44     2
    96    42    45     1
    97    46    47     2
    98    46    48     2
    99    46    49     1
