@<TRIPOS>MOLECULE
1ED
   52    54     1     0     0
SMALL
No Charge or Current Charge


@<TRIPOS>ATOM
      1 C21         3.5400    1.4200    0.0000 c3        1 1ED      0.116700
      2 H20         3.1500    1.4970   -1.0390 h1        1 1ED      0.035700
      3 H21         3.8070    0.3590    0.2040 h1        1 1ED      0.035700
      4 H22         2.7690    1.7420    0.7340 h1        1 1ED      0.035700
      5 O3          4.7090    2.1990    0.1440 os        1 1ED     -0.423600
      6 C20         4.4700    3.5640   -0.0970 c3        1 1ED      0.121400
      7 H18         3.7100    3.9400    0.6260 h1        1 1ED      0.049200
      8 H19         4.0880    3.6960   -1.1360 h1        1 1ED      0.049200
      9 C19         5.7760    4.3280    0.0770 c3        1 1ED      0.120400
     10 H16         6.5260    3.9500   -0.6570 h1        1 1ED      0.062200
     11 H17         6.1440    4.1970    1.1210 h1        1 1ED      0.062200
     12 O2          5.5290    5.6880   -0.1650 os        1 1ED     -0.321900
     13 C4          6.5580    6.5950   -0.0560 ca        1 1ED      0.146100
     14 C5          7.8320    6.2860    0.2540 ca        1 1ED     -0.269300
     15 H7          8.1130    5.2350    0.4350 ha        1 1ED      0.163000
     16 C3          6.2880    7.8980   -0.2890 ca        1 1ED      0.076100
     17 O1          5.0450    8.2920   -0.7240 os        1 1ED     -0.333900
     18 C2          4.2260    8.7900    0.3030 c3        1 1ED      0.125400
     19 C1          2.9510    9.3540   -0.3040 c3        1 1ED      0.123400
     20 O           2.1610    9.8880    0.7290 os        1 1ED     -0.423600
     21 C           0.9710   10.4710    0.2430 c3        1 1ED      0.117700
     22 H           0.3530    9.7080   -0.2800 h1        1 1ED      0.034367
     23 H1          0.3990   10.8610    1.1140 h1        1 1ED      0.034367
     24 H2          1.2070   11.3190   -0.4370 h1        1 1ED      0.034367
     25 H3          2.3880    8.5480   -0.8270 h1        1 1ED      0.041200
     26 H4          3.2060   10.1620   -1.0290 h1        1 1ED      0.041200
     27 H5          4.7680    9.5970    0.8500 h1        1 1ED      0.059700
     28 H6          3.9920    7.9650    1.0150 h1        1 1ED      0.059700
     29 C8          7.2950    8.7890   -0.2500 ca        1 1ED     -0.073000
     30 H8          7.0430    9.7860   -0.6340 ha        1 1ED      0.170000
     31 C7          8.5490    8.5170    0.1460 ca        1 1ED     -0.279600
     32 C6          8.8070    7.2070    0.3400 ca        1 1ED      0.450600
     33 N1          9.9810    6.8150    0.6030 nb        1 1ED     -0.700000
     34 C10        10.8810    7.6990    0.6260 ca        1 1ED      0.660900
     35 H9         11.9090    7.3520    0.8260 h5        1 1ED      0.055100
     36 N          10.7250    8.9410    0.4600 nb        1 1ED     -0.760000
     37 C9          9.5590    9.4130    0.2680 ca        1 1ED      0.676200
     38 N2          9.5560   10.6910    0.2320 nh        1 1ED     -0.713300
     39 H10        10.5500   11.0340    0.1450 hn        1 1ED      0.425800
     40 C11         8.7800   11.7000    0.2980 ca        1 1ED      0.125600
     41 C16         7.4920   11.7210    0.6920 ca        1 1ED     -0.152000
     42 H14         7.0010   10.8160    1.0770 ha        1 1ED      0.151000
     43 C12         9.3470   12.8930    0.0270 ca        1 1ED     -0.156000
     44 H11        10.4130   12.9660   -0.2540 ha        1 1ED      0.140000
     45 C13         8.6420   14.0340    0.0560 ca        1 1ED     -0.107000
     46 H12         9.1310   14.9910   -0.1930 ha        1 1ED      0.137000
     47 C14         7.3450   14.0180    0.3900 ca        1 1ED     -0.131000
     48 H13         6.7730   14.9610    0.4160 ha        1 1ED      0.143000
     49 C15         6.7690   12.8520    0.7200 ca        1 1ED      0.050999
     50 C17         5.5070   12.8180    1.0980 cg        1 1ED     -0.131000
     51 C18         4.3430   12.7730    1.4360 c1        1 1ED     -0.125500
     52 H15         3.2980   12.7270    1.7360 ha        1 1ED      0.169500
@<TRIPOS>BOND
     1    2    1 1   
     2    3    1 1   
     3    4    1 1   
     4    5    1 1   
     5    6    5 1   
     6    7    6 1   
     7    8    6 1   
     8    9    6 1   
     9   10    9 1   
    10   11    9 1   
    11   12    9 1   
    12   13   12 1   
    13   14   13 ar  
    14   15   14 1   
    15   16   13 ar  
    16   17   16 1   
    17   18   17 1   
    18   19   18 1   
    19   20   19 1   
    20   21   20 1   
    21   22   21 1   
    22   23   21 1   
    23   24   21 1   
    24   25   19 1   
    25   26   19 1   
    26   27   18 1   
    27   28   18 1   
    28   29   16 ar  
    29   30   29 1   
    30   31   29 ar  
    31   32   31 ar  
    32   33   32 ar  
    33   34   33 ar  
    34   35   34 1   
    35   36   34 ar  
    36   37   36 ar  
    37   38   37 1   
    38   39   38 1   
    39   40   38 1   
    40   41   40 ar  
    41   42   41 1   
    42   43   40 ar  
    43   44   43 1   
    44   45   43 ar  
    45   46   45 1   
    46   47   45 ar  
    47   48   47 1   
    48   49   47 ar  
    49   50   49 1   
    50   51   50 3   
    51   52   51 1   
    52   32   14 ar  
    53   37   31 ar  
    54   49   41 ar  
@<TRIPOS>SUBSTRUCTURE
     1 1ED         1 TEMP              0 ****  ****    0 ROOT
