@<TRIPOS>MOLECULE
2MD
   42    44     1     0     0
SMALL
bcc


@<TRIPOS>ATOM
      1 F          -0.9650   -1.1890    1.1380 f         1 2MD     -0.145900
      2 C           0.0810   -1.7060   -1.6830 ca        1 2MD      0.065600
      3 C1          1.0810   -1.2240   -0.8980 ca        1 2MD     -0.086600
      4 C2          0.3670   -2.6030   -2.6590 ca        1 2MD      0.169900
      5 C3          2.3250   -1.7410   -1.0040 ca        1 2MD     -0.103000
      6 C4          1.6090   -3.0940   -2.7670 ca        1 2MD      0.046400
      7 C5          2.5640   -2.6730   -1.9290 ca        1 2MD     -0.053200
      8 N           2.0770   -3.9550   -3.5720 nc        1 2MD     -0.543100
      9 C6          3.3000   -4.0850   -3.2680 cd        1 2MD      0.431700
     10 N1          3.5840   -3.3230   -2.2990 na        1 2MD     -0.166300
     11 N2         -1.1720   -1.4640   -1.6720 nh        1 2MD     -0.601000
     12 C7         -2.0780   -0.9890   -0.9120 ca        1 2MD      0.134600
     13 C8         -3.2580   -0.7330   -1.5140 ca        1 2MD     -0.161000
     14 C9         -2.0050   -0.7900    0.4210 ca        1 2MD      0.082900
     15 C10        -4.2970   -0.2070   -0.8470 ca        1 2MD     -0.081000
     16 C11        -3.0460   -0.2740    1.0960 ca        1 2MD     -0.107000
     17 C12        -4.1850    0.0450    0.4650 ca        1 2MD     -0.037900
     18 F1         -0.5670   -3.0600   -3.4850 f         1 2MD     -0.112900
     19 Br         -5.6450    0.7710    1.4260 br        1 2MD     -0.076100
     20 C13         4.9140   -3.2070   -1.6930 c3        1 2MD      0.028600
     21 C14         0.9320   -0.1440   -0.0730 c         1 2MD      0.639700
     22 N3          1.7700   -0.1110    1.0180 n         1 2MD     -0.345400
     23 O           0.0860    0.7090   -0.2210 o         1 2MD     -0.563100
     24 O1          1.7420    0.8040    1.9680 os        1 2MD     -0.222900
     25 C15         2.5340    1.9230    1.6680 c3        1 2MD      0.027400
     26 C16         2.3650    2.9570    2.7660 c3        1 2MD      0.135400
     27 O2          3.2000    4.0640    2.4960 oh        1 2MD     -0.599800
     28 H           3.1890   -1.3850   -0.4220 ha        1 2MD      0.159000
     29 H1          4.0200   -4.7480   -3.7600 h5        1 2MD      0.076800
     30 H2         -1.6090   -1.7850   -2.5760 hn        1 2MD      0.419800
     31 H3         -3.3950   -0.9180   -2.5950 ha        1 2MD      0.145000
     32 H4         -5.2330    0.0110   -1.3890 ha        1 2MD      0.152000
     33 H5         -2.9590   -0.1400    2.1880 ha        1 2MD      0.162000
     34 H6          5.6450   -3.9080   -2.1560 h1        1 2MD      0.058033
     35 H7          5.3080   -2.1730   -1.8210 h1        1 2MD      0.058033
     36 H8          4.8670   -3.4410   -0.6050 h1        1 2MD      0.058033
     37 H9          2.4100   -0.8840    1.1210 hn        1 2MD      0.311500
     38 H10         3.5990    1.6010    1.5970 h1        1 2MD      0.055700
     39 H11         2.2180    2.3520    0.6890 h1        1 2MD      0.055700
     40 H12         1.3170    3.3300    2.8170 h1        1 2MD      0.060200
     41 H13         2.6590    2.5510    3.7600 h1        1 2MD      0.060200
     42 H14         3.0470    4.7480    3.1520 ho        1 2MD      0.413000
@<TRIPOS>BOND
     1    1   14 1   
     2    2    3 ar  
     3    2    4 ar  
     4    2   11 1   
     5    3    5 ar  
     6    3   21 1   
     7    4    6 ar  
     8    4   18 1   
     9    5    7 ar  
    10    5   28 1   
    11    6    7 ar  
    12    6    8 1   
    13    7   10 1   
    14    8    9 2   
    15    9   10 1   
    16    9   29 1   
    17   10   20 1   
    18   11   12 1   
    19   11   30 1   
    20   12   13 ar  
    21   12   14 ar  
    22   13   15 ar  
    23   13   31 1   
    24   14   16 ar  
    25   15   17 ar  
    26   15   32 1   
    27   16   17 ar  
    28   16   33 1   
    29   17   19 1   
    30   20   34 1   
    31   20   35 1   
    32   20   36 1   
    33   21   22 1   
    34   21   23 2   
    35   22   24 1   
    36   22   37 1   
    37   24   25 1   
    38   25   26 1   
    39   25   38 1   
    40   25   39 1   
    41   26   27 1   
    42   26   40 1   
    43   26   41 1   
    44   27   42 1   
@<TRIPOS>SUBSTRUCTURE
     1 2MD         1 TEMP              0 ****  ****    0 ROOT
