@<TRIPOS>MOLECULE
6SD
   48    50     1     0     0
SMALL
bcc


@<TRIPOS>ATOM
      1 C           5.4520    0.8420    0.2980 ca        1 6SD      0.145100
      2 C1          5.5350    0.2490    1.5020 ca        1 6SD     -0.294300
      3 C2          5.8190    0.0800   -0.7500 ca        1 6SD     -0.210300
      4 C3          5.9560   -1.0210    1.5720 ca        1 6SD      0.421200
      5 C4          6.2330   -1.1940   -0.5950 ca        1 6SD      0.378800
      6 N           6.2880   -1.7070    0.5650 nb        1 6SD     -0.681000
      7 O           5.0320    2.1360    0.1490 os        1 6SD     -0.237200
      8 C5          1.5090    2.0980   -0.6450 ca        1 6SD     -0.145500
      9 C6          0.9510    2.6030    0.4680 ca        1 6SD      0.059600
     10 C7          2.8400    1.9490   -0.7450 ca        1 6SD     -0.113000
     11 C8          1.7800    2.9520    1.4690 ca        1 6SD     -0.145500
     12 C9          3.6750    2.2890    0.2540 ca        1 6SD      0.061100
     13 C10         3.1080    2.7990    1.3630 ca        1 6SD     -0.113000
     14 C11         6.5960   -1.9350   -1.6830 c         1 6SD      0.567600
     15 N1          6.9920   -3.2050   -1.3700 n         1 6SD     -0.550900
     16 C12         7.4210   -4.1680   -2.3840 c3        1 6SD      0.075300
     17 O1          6.5830   -1.5490   -2.8290 o         1 6SD     -0.608100
     18 N2         -0.3620    2.8080    0.7030 n         1 6SD     -0.460100
     19 C13        -1.4930    2.5770   -0.0300 c         1 6SD      0.774100
     20 N3         -2.6420    2.9800    0.5940 n         1 6SD     -0.465100
     21 O2         -1.4800    2.0690   -1.1170 o         1 6SD     -0.604100
     22 C14        -3.9470    2.9430    0.2480 ca        1 6SD      0.064600
     23 C15        -4.4650    2.4510   -0.8890 ca        1 6SD     -0.102000
     24 C16        -4.8030    3.4560    1.1530 ca        1 6SD     -0.136000
     25 C17        -5.7900    2.4790   -1.1000 ca        1 6SD     -0.111000
     26 C18        -6.1380    3.5000    0.9730 ca        1 6SD     -0.137300
     27 C19        -6.6200    2.9970   -0.1820 ca        1 6SD      0.037400
     28 Cl         -8.3140    2.9940   -0.5350 cl        1 6SD     -0.055400
     29 C20        -7.0350    4.0990    2.0470 c3        1 6SD      0.692200
     30 F          -7.7210    5.1240    1.5650 f         1 6SD     -0.231967
     31 F1         -6.3700    4.5390    3.1040 f         1 6SD     -0.231967
     32 F2         -7.9060    3.2010    2.4820 f         1 6SD     -0.231967
     33 H           5.2600    0.7970    2.4180 ha        1 6SD      0.160000
     34 H1          5.7650    0.5480   -1.7470 ha        1 6SD      0.187000
     35 H2          6.0280   -1.5240    2.5510 h4        1 6SD      0.028100
     36 H3          0.9100    1.7920   -1.5140 ha        1 6SD      0.156500
     37 H4          3.2630    1.5340   -1.6760 ha        1 6SD      0.155000
     38 H5          1.3740    3.3750    2.4040 ha        1 6SD      0.156500
     39 H6          3.7530    3.0980    2.2070 ha        1 6SD      0.155000
     40 H7          6.9860   -3.4870   -0.3900 hn        1 6SD      0.328500
     41 H8          6.5970   -4.3730   -3.1040 h1        1 6SD      0.045367
     42 H9          8.3140   -3.7900   -2.9310 h1        1 6SD      0.045367
     43 H10         7.6960   -5.1240   -1.8840 h1        1 6SD      0.045367
     44 H11        -0.4870    3.2120    1.6200 hn        1 6SD      0.312500
     45 H12        -2.5400    3.4020    1.5060 hn        1 6SD      0.314500
     46 H13        -3.8440    2.0130   -1.6820 ha        1 6SD      0.182000
     47 H14        -4.3800    3.8600    2.0880 ha        1 6SD      0.155000
     48 H15        -6.1850    2.0680   -2.0450 ha        1 6SD      0.161000
@<TRIPOS>BOND
     1    1    2 ar  
     2    1    3 ar  
     3    1    7 1   
     4    2    4 ar  
     5    2   33 1   
     6    3    5 ar  
     7    3   34 1   
     8    4    6 ar  
     9    4   35 1   
    10    5    6 ar  
    11    5   14 1   
    12    7   12 1   
    13    8    9 ar  
    14    8   10 ar  
    15    8   36 1   
    16    9   11 ar  
    17    9   18 1   
    18   10   12 ar  
    19   10   37 1   
    20   11   13 ar  
    21   11   38 1   
    22   12   13 ar  
    23   13   39 1   
    24   14   15 1   
    25   14   17 2   
    26   15   16 1   
    27   15   40 1   
    28   16   41 1   
    29   16   42 1   
    30   16   43 1   
    31   18   19 1   
    32   18   44 1   
    33   19   20 1   
    34   19   21 2   
    35   20   22 1   
    36   20   45 1   
    37   22   23 ar  
    38   22   24 ar  
    39   23   25 ar  
    40   23   46 1   
    41   24   26 ar  
    42   24   47 1   
    43   25   27 ar  
    44   25   48 1   
    45   26   27 ar  
    46   26   29 1   
    47   27   28 1   
    48   29   30 1   
    49   29   31 1   
    50   29   32 1   
@<TRIPOS>SUBSTRUCTURE
     1 6SD         1 TEMP              0 ****  ****    0 ROOT
