@<TRIPOS>MOLECULE
7TD
   42    46     1     0     0
SMALL
bcc


@<TRIPOS>ATOM
      1 C          -4.0460   -0.0560    1.2540 c         1 7TD      0.684100
      2 N          -3.2680   -0.9350    1.9450 n         1 7TD     -0.299900
      3 N1         -1.9590   -1.1320    1.6780 nc        1 7TD     -0.410300
      4 C1         -1.3880   -0.4170    0.8080 cd        1 7TD      0.342900
      5 C2         -2.0680    0.5130    0.1140 ca        1 7TD     -0.194900
      6 C3         -1.4320    1.2620   -0.8080 ca        1 7TD      0.192600
      7 C4         -2.1260    2.1300   -1.5640 ca        1 7TD     -0.202000
      8 C5         -3.4460    2.2860   -1.3860 ca        1 7TD      0.163900
      9 C6         -4.0710    1.5680   -0.4410 ca        1 7TD     -0.149000
     10 C7         -3.3930    0.6810    0.3120 ca        1 7TD     -0.076600
     11 C8          0.0560   -0.7500    0.5220 c3        1 7TD     -0.121300
     12 C9          0.7590    0.4070   -0.1950 c3        1 7TD      0.267800
     13 N2         -0.1790    1.2020   -1.0050 nh        1 7TD     -0.741600
     14 O          -5.2220    0.0040    1.5220 o         1 7TD     -0.601500
     15 N3          1.0070   -0.7120    2.8990 na        1 7TD     -0.034400
     16 N4          1.7740   -1.4020    3.5760 nc        1 7TD     -0.519800
     17 C10         2.0880   -2.3390    2.7870 cd        1 7TD      0.504900
     18 N5          1.5410   -2.2470    1.6490 nd        1 7TD     -0.674000
     19 C11         0.8400   -1.1950    1.7330 cc        1 7TD      0.417800
     20 C12         0.3320    0.5180    3.3430 c3        1 7TD      0.034600
     21 C13         1.9110   -0.0730   -1.0520 ca        1 7TD     -0.127300
     22 C14         3.1720   -0.0530   -0.5840 ca        1 7TD     -0.084500
     23 C15         4.1950   -0.4870   -1.3370 ca        1 7TD     -0.162500
     24 C16         3.9740   -0.9520   -2.5760 ca        1 7TD      0.141900
     25 C17         2.7190   -0.9810   -3.0490 ca        1 7TD     -0.162500
     26 C18         1.6990   -0.5480   -2.2920 ca        1 7TD     -0.084500
     27 F           4.9800   -1.3810   -3.3190 f         1 7TD     -0.134900
     28 F1         -4.1200    3.1520   -2.1270 f         1 7TD     -0.129900
     29 H          -3.7440   -1.4700    2.6550 hn        1 7TD      0.364500
     30 H1         -1.6220    2.7440   -2.3290 ha        1 7TD      0.160000
     31 H2         -5.1540    1.7280   -0.3160 ha        1 7TD      0.179000
     32 H3         -0.0150   -1.6040   -0.1990 hc        1 7TD      0.108700
     33 H4          1.1370    1.1460    0.5510 h1        1 7TD      0.069700
     34 H5          0.2180    1.8210   -1.7540 hn        1 7TD      0.425800
     35 H6          2.7740   -3.1520    3.0600 h5        1 7TD      0.072100
     36 H7          1.0630    1.1820    3.8580 h1        1 7TD      0.063033
     37 H8         -0.1140    1.1070    2.5130 h1        1 7TD      0.063033
     38 H9         -0.4770    0.2630    4.0640 h1        1 7TD      0.063033
     39 H10         3.3760    0.3180    0.4340 ha        1 7TD      0.139500
     40 H11         5.2220   -0.4630   -0.9350 ha        1 7TD      0.155000
     41 H12         2.5250   -1.3680   -4.0640 ha        1 7TD      0.155000
     42 H13         0.6750   -0.5910   -2.7000 ha        1 7TD      0.139500
@<TRIPOS>BOND
     1    1    2 1   
     2    1   10 1   
     3    1   14 2   
     4    2    3 1   
     5    2   29 1   
     6    3    4 2   
     7    4    5 1   
     8    4   11 1   
     9    5    6 ar  
    10    5   10 ar  
    11    6    7 ar  
    12    6   13 1   
    13    7    8 ar  
    14    7   30 1   
    15    8    9 ar  
    16    8   28 1   
    17    9   10 ar  
    18    9   31 1   
    19   11   12 1   
    20   11   19 1   
    21   11   32 1   
    22   12   13 1   
    23   12   21 1   
    24   12   33 1   
    25   13   34 1   
    26   15   16 1   
    27   15   19 1   
    28   15   20 1   
    29   16   17 2   
    30   17   18 1   
    31   17   35 1   
    32   18   19 2   
    33   20   36 1   
    34   20   37 1   
    35   20   38 1   
    36   21   22 ar  
    37   21   26 ar  
    38   22   23 ar  
    39   22   39 1   
    40   23   24 ar  
    41   23   40 1   
    42   24   25 ar  
    43   24   27 1   
    44   25   26 ar  
    45   25   41 1   
    46   26   42 1   
@<TRIPOS>SUBSTRUCTURE
     1 7TD         1 TEMP              0 ****  ****    0 ROOT
