@<TRIPOS>MOLECULE
8TD
   62    66     1     0     0
SMALL
bcc


@<TRIPOS>ATOM
      1 C           1.6050    3.0180    0.5210 ca        1 8TD      0.046000
      2 C1          1.3670    1.6980    0.5180 ca        1 8TD     -0.154000
      3 C2          0.1130    1.2260    0.5120 ca        1 8TD     -0.071000
      4 C3         -0.9870    2.0120    0.5130 ca        1 8TD     -0.157500
      5 C4         -0.7680    3.3500    0.5210 ca        1 8TD      0.117100
      6 C5          0.5080    3.7950    0.5160 ca        1 8TD     -0.145000
      7 O          -1.7230    4.3340    0.4810 os        1 8TD     -0.332900
      8 C6         -2.8910    4.0950   -0.2430 c3        1 8TD      0.115400
      9 C7         -3.8180    3.2130    0.5690 c3        1 8TD      0.003300
     10 N          -3.3860    1.8150    0.5590 na        1 8TD     -0.187900
     11 C8         -2.1900    1.3920    0.5300 cc        1 8TD      0.475000
     12 N1         -2.3100    0.1240    0.5270 nd        1 8TD     -0.666000
     13 C9         -3.5260   -0.2430    0.5550 cd        1 8TD      0.258300
     14 C10        -4.2460    0.8870    0.5760 cc        1 8TD     -0.193600
     15 C11        -3.8850   -1.5400    0.5570 cd        1 8TD      0.399500
     16 N2         -5.0020   -2.1570    0.5880 na        1 8TD     -0.022400
     17 N3         -4.8580   -3.3830    0.5630 nd        1 8TD     -0.527800
     18 C12        -3.6070   -3.5440    0.5220 cc        1 8TD      0.509300
     19 N4         -2.9920   -2.4420    0.5180 nc        1 8TD     -0.697000
     20 C13        -2.9300   -4.8760    0.4810 c3        1 8TD     -0.108400
     21 C14        -6.3190   -1.4850    0.6460 c3        1 8TD      0.074000
     22 C15        -6.7490   -1.0260   -0.7570 c3        1 8TD     -0.104600
     23 C16        -7.4030   -2.4050    1.2410 c3        1 8TD     -0.104600
     24 C17         2.8550    3.5200    0.5240 cc        1 8TD     -0.224300
     25 C18         3.2600    4.8030    0.5270 cc        1 8TD      0.326200
     26 N5          4.5210    4.8960    0.5260 nd        1 8TD     -0.532800
     27 N6          4.9430    3.7360    0.5200 na        1 8TD      0.087400
     28 C19         4.0240    2.8600    0.5210 cd        1 8TD     -0.102300
     29 C20         6.3640    3.2990    0.4900 c3        1 8TD      0.020700
     30 C21         6.5860    2.4240   -0.7480 c         1 8TD      0.647100
     31 O1          7.3570    1.5030   -0.8210 o         1 8TD     -0.610100
     32 N7          5.8280    2.7730   -1.8220 n         1 8TD     -0.653000
     33 C22         7.3110    4.5080    0.3330 c3        1 8TD     -0.102100
     34 C23         6.7450    2.5440    1.7780 c3        1 8TD     -0.102100
     35 H           2.1890    0.9630    0.5200 ha        1 8TD      0.135000
     36 H1          0.0480    0.1240    0.5120 ha        1 8TD      0.160000
     37 H2          0.6310    4.8900    0.5040 ha        1 8TD      0.150000
     38 H3         -3.3730    5.0910   -0.3980 h1        1 8TD      0.074700
     39 H4         -2.6510    3.6780   -1.2470 h1        1 8TD      0.074700
     40 H5         -3.8960    3.5730    1.6220 h1        1 8TD      0.072700
     41 H6         -4.8390    3.3060    0.1230 h1        1 8TD      0.072700
     42 H7         -5.3200    1.0810    0.6000 h4        1 8TD      0.198000
     43 H8         -3.6680   -5.7090    0.4810 hc        1 8TD      0.053700
     44 H9         -2.3090   -4.9650   -0.4400 hc        1 8TD      0.053700
     45 H10        -2.2680   -5.0000    1.3680 hc        1 8TD      0.053700
     46 H11        -6.2500   -0.6280    1.3550 h1        1 8TD      0.082700
     47 H12        -7.7110   -0.4680   -0.7200 hc        1 8TD      0.049367
     48 H13        -5.9940   -0.3620   -1.2320 hc        1 8TD      0.049367
     49 H14        -6.8850   -1.9000   -1.4340 hc        1 8TD      0.049367
     50 H15        -8.3760   -1.8690    1.3380 hc        1 8TD      0.049367
     51 H16        -7.1160   -2.7590    2.2580 hc        1 8TD      0.049367
     52 H17        -7.5810   -3.3000    0.6030 hc        1 8TD      0.049367
     53 H18         2.6410    5.7090    0.5280 h4        1 8TD      0.048100
     54 H19         4.2290    1.7840    0.5110 h4        1 8TD      0.186000
     55 H20         5.9410    2.2440   -2.6740 hn        1 8TD      0.322500
     56 H21         5.1460    3.5160   -1.7420 hn        1 8TD      0.322500
     57 H22         8.3760    4.1880    0.2700 hc        1 8TD      0.060367
     58 H23         7.2240    5.2020    1.2000 hc        1 8TD      0.060367
     59 H24         7.0850    5.0910   -0.5890 hc        1 8TD      0.060367
     60 H25         6.5400    3.1730    2.6740 hc        1 8TD      0.060367
     61 H26         6.1710    1.5980    1.8960 hc        1 8TD      0.060367
     62 H27         7.8270    2.2780    1.8000 hc        1 8TD      0.060367
@<TRIPOS>BOND
     1    1    2 ar  
     2    1    6 ar  
     3    1   24 1   
     4    2    3 ar  
     5    2   35 1   
     6    3    4 ar  
     7    3   36 1   
     8    4    5 ar  
     9    4   11 1   
    10    5    6 ar  
    11    5    7 1   
    12    6   37 1   
    13    7    8 1   
    14    8    9 1   
    15    8   38 1   
    16    8   39 1   
    17    9   10 1   
    18    9   40 1   
    19    9   41 1   
    20   10   11 1   
    21   10   14 1   
    22   11   12 2   
    23   12   13 1   
    24   13   14 2   
    25   13   15 1   
    26   14   42 1   
    27   15   16 1   
    28   15   19 2   
    29   16   17 1   
    30   16   21 1   
    31   17   18 2   
    32   18   19 1   
    33   18   20 1   
    34   20   43 1   
    35   20   44 1   
    36   20   45 1   
    37   21   22 1   
    38   21   23 1   
    39   21   46 1   
    40   22   47 1   
    41   22   48 1   
    42   22   49 1   
    43   23   50 1   
    44   23   51 1   
    45   23   52 1   
    46   24   25 1   
    47   24   28 2   
    48   25   26 2   
    49   25   53 1   
    50   26   27 1   
    51   27   28 1   
    52   27   29 1   
    53   28   54 1   
    54   29   30 1   
    55   29   33 1   
    56   29   34 1   
    57   30   31 2   
    58   30   32 1   
    59   32   55 1   
    60   32   56 1   
    61   33   57 1   
    62   33   58 1   
    63   33   59 1   
    64   34   60 1   
    65   34   61 1   
    66   34   62 1   
@<TRIPOS>SUBSTRUCTURE
     1 8TD         1 TEMP              0 ****  ****    0 ROOT
