@<TRIPOS>MOLECULE
9TD
   60    64     1     0     0
SMALL
bcc


@<TRIPOS>ATOM
      1 I           1.9170   -6.6890    6.2870 i         1 9TD     -0.120900
      2 F          -0.6110   -2.1450    5.0640 f         1 9TD     -0.127900
      3 O          -0.8060    0.2990    3.1320 o         1 9TD     -0.639500
      4 O1          0.5780    3.5550    0.4790 o         1 9TD     -0.611500
      5 O2          1.1790   -2.8360   -1.7430 o         1 9TD     -0.617500
      6 O3         -0.2650    4.7770   -6.0150 o         1 9TD     -0.587100
      7 N           0.3370    1.4610   -0.3540 n         1 9TD     -0.300200
      8 N1          0.2560    1.8550    1.9260 n         1 9TD     -0.465400
      9 N2          0.4240   -2.5020    0.3420 n         1 9TD     -0.351000
     10 N3          0.1550   -2.0910    2.5990 nh        1 9TD     -0.642400
     11 N4          0.7670    4.2520   -4.0560 n         1 9TD     -0.475100
     12 C           0.4390    0.1270   -0.1020 cc        1 9TD      0.184600
     13 C1          0.1260   -0.3420    1.1320 cc        1 9TD     -0.340200
     14 C2         -0.2150    0.5630    2.1060 c         1 9TD      0.749700
     15 C3          0.4410    2.3700    0.6630 c         1 9TD      0.826500
     16 C4          0.2330   -1.6720    1.3980 cd        1 9TD      0.367600
     17 C5          0.8910   -0.7100   -1.0650 cd        1 9TD     -0.242400
     18 C6          0.4180    2.7230    3.0820 cx        1 9TD      0.042700
     19 C7          0.8650   -2.0560   -0.8720 c         1 9TD      0.708700
     20 C8         -0.1350    1.9150   -1.5440 ca        1 9TD      0.069600
     21 C9          1.3390    2.1530    4.1300 cx        1 9TD     -0.119900
     22 C10         1.8190    3.2590    3.2260 cx        1 9TD     -0.119900
     23 C11         0.4960    2.8560   -2.2730 ca        1 9TD     -0.167000
     24 C12        -1.2900    1.4170   -2.0230 ca        1 9TD     -0.166000
     25 C13         0.5520   -3.0910    3.2850 ca        1 9TD      0.125600
     26 C14         1.4460   -0.2510   -2.4050 c3        1 9TD     -0.043900
     27 C15        -0.1010   -3.8790    0.3520 c3        1 9TD      0.051300
     28 C16         0.0160    3.3090   -3.4470 ca        1 9TD      0.081600
     29 C17         0.1710   -3.1020    4.5810 ca        1 9TD      0.096900
     30 C18        -1.7850    1.8500   -3.1910 ca        1 9TD     -0.098000
     31 C19         1.3710   -4.0760    2.8740 ca        1 9TD     -0.161000
     32 C20        -1.1380    2.7890   -3.8970 ca        1 9TD     -0.154000
     33 C21         0.5370   -4.0980    5.4040 ca        1 9TD     -0.107000
     34 C22         1.7440   -5.0740    3.6900 ca        1 9TD     -0.081000
     35 C23         1.3170   -5.0940    4.9600 ca        1 9TD      0.019900
     36 C24         0.6360    4.9320   -5.2310 c         1 9TD      0.667100
     37 C25         1.7530    5.9290   -5.4840 c3        1 9TD     -0.179100
     38 H          -0.2140   -1.4020    3.2940 hn        1 9TD      0.481800
     39 H1          1.5760    4.4630   -3.4890 hn        1 9TD      0.319500
     40 H2         -0.4950    3.2800    3.2800 h1        1 9TD      0.100700
     41 H3          1.1180    2.4050    5.1660 hc        1 9TD      0.082950
     42 H4          1.7750    1.1660    3.9810 hc        1 9TD      0.082950
     43 H5          2.5680    3.0000    2.4800 hc        1 9TD      0.082950
     44 H6          1.9220    4.2550    3.6550 hc        1 9TD      0.082950
     45 H7          1.4560    3.2600   -1.9070 ha        1 9TD      0.159000
     46 H8         -1.8490    0.6510   -1.4590 ha        1 9TD      0.143000
     47 H9          0.6700   -0.2940   -3.2020 hc        1 9TD      0.057700
     48 H10         1.9000    0.7600   -2.3640 hc        1 9TD      0.057700
     49 H11         2.3110   -0.8690   -2.7350 hc        1 9TD      0.057700
     50 H12        -0.8660   -3.9840   -0.4530 h1        1 9TD      0.071033
     51 H13         0.6840   -4.6410    0.1480 h1        1 9TD      0.071033
     52 H14        -0.6620   -4.1410    1.2740 h1        1 9TD      0.071033
     53 H15        -2.7340    1.4330   -3.5690 ha        1 9TD      0.141000
     54 H16         1.8170   -4.0680    1.8700 ha        1 9TD      0.152000
     55 H17        -1.5970    3.1040   -4.8450 ha        1 9TD      0.179000
     56 H18         0.1900   -4.0890    6.4500 ha        1 9TD      0.166000
     57 H19         2.4230   -5.8590    3.3160 ha        1 9TD      0.155000
     58 H20         1.7800    6.6890   -4.6690 hc        1 9TD      0.070367
     59 H21         2.7340    5.4040   -5.5210 hc        1 9TD      0.070367
     60 H22         1.6090    6.4630   -6.4500 hc        1 9TD      0.070367
@<TRIPOS>BOND
     1    1   35 1   
     2    2   29 1   
     3    3   14 2   
     4    4   15 2   
     5    5   19 2   
     6    6   36 2   
     7    7   12 1   
     8    7   15 1   
     9    7   20 1   
    10    8   14 1   
    11    8   15 1   
    12    8   18 1   
    13    9   16 1   
    14    9   19 1   
    15    9   27 1   
    16   10   16 1   
    17   10   25 1   
    18   10   38 1   
    19   11   28 1   
    20   11   36 1   
    21   11   39 1   
    22   12   13 1   
    23   12   17 2   
    24   13   14 1   
    25   13   16 2   
    26   17   19 1   
    27   17   26 1   
    28   18   21 1   
    29   18   22 1   
    30   18   40 1   
    31   20   23 ar  
    32   20   24 ar  
    33   21   22 1   
    34   21   41 1   
    35   21   42 1   
    36   22   43 1   
    37   22   44 1   
    38   23   28 ar  
    39   23   45 1   
    40   24   30 ar  
    41   24   46 1   
    42   25   29 ar  
    43   25   31 ar  
    44   26   47 1   
    45   26   48 1   
    46   26   49 1   
    47   27   50 1   
    48   27   51 1   
    49   27   52 1   
    50   28   32 ar  
    51   29   33 ar  
    52   30   32 ar  
    53   30   53 1   
    54   31   34 ar  
    55   31   54 1   
    56   32   55 1   
    57   33   35 ar  
    58   33   56 1   
    59   34   35 ar  
    60   34   57 1   
    61   36   37 1   
    62   37   58 1   
    63   37   59 1   
    64   37   60 1   
@<TRIPOS>SUBSTRUCTURE
     1 9TD         1 TEMP              0 ****  ****    0 ROOT
