@<TRIPOS>MOLECULE
CRZ
   52    55     1     0     0
SMALL
bcc


@<TRIPOS>ATOM
      1 C          -1.7090   -2.7420   -2.3370 ca        1 CRZ      0.437200
      2 C1         -1.1190   -1.9340   -1.4390 ca        1 CRZ     -0.137300
      3 C2         -1.9470   -1.4370   -0.5040 ca        1 CRZ     -0.068000
      4 C3         -3.2730   -1.6710   -0.5240 ca        1 CRZ     -0.081200
      5 C4         -3.7100   -2.5350   -1.4650 ca        1 CRZ      0.619200
      6 N          -2.9390   -3.0360   -2.3370 nb        1 CRZ     -0.713000
      7 N1         -4.9430   -2.8330   -1.4600 nh        1 CRZ     -0.921500
      8 O          -4.0900   -1.1790    0.4640 os        1 CRZ     -0.331900
      9 C5         -4.4870    0.1710    0.3150 c3        1 CRZ      0.183400
     10 C6         -3.3030    1.1420    0.4640 ca        1 CRZ     -0.065300
     11 C7          0.1950   -1.6420   -1.4630 cc        1 CRZ     -0.200300
     12 C8         -2.8650    1.4550    1.7080 ca        1 CRZ      0.021400
     13 C9         -1.8260    2.2830    1.9100 ca        1 CRZ     -0.107000
     14 C10        -1.1820    2.8220    0.8690 ca        1 CRZ     -0.148000
     15 C11        -1.5770    2.5230   -0.3740 ca        1 CRZ      0.120900
     16 C12        -2.6240    1.6950   -0.5710 ca        1 CRZ     -0.004600
     17 Cl         -2.9920    1.3590   -2.2310 cl        1 CRZ     -0.047400
     18 Cl1        -3.5790    0.8100    3.1530 cl        1 CRZ     -0.071400
     19 F          -0.9130    3.0640   -1.3870 f         1 CRZ     -0.124900
     20 C13         1.1480   -2.0730   -2.3080 cc        1 CRZ      0.303200
     21 N2          2.2790   -1.5780   -2.0280 nd        1 CRZ     -0.504800
     22 N3          2.0900   -0.8480   -1.0500 na        1 CRZ      0.091400
     23 C14         0.8850   -0.8280   -0.6470 cd        1 CRZ     -0.133300
     24 C15         3.0950   -0.0280   -0.3340 c3        1 CRZ      0.075000
     25 C16         3.5750   -0.7380    0.9420 c3        1 CRZ     -0.090900
     26 C17         4.6280    0.1080    1.6720 c3        1 CRZ      0.163800
     27 N4          5.7510    0.4380    0.7950 n3        1 CRZ     -0.822200
     28 C18         5.3390    1.1320   -0.4240 c3        1 CRZ      0.163800
     29 C19         4.3110    0.3080   -1.2120 c3        1 CRZ     -0.090900
     30 C20        -5.4890    0.3340   -0.8340 c3        1 CRZ     -0.121100
     31 H          -1.1390   -3.2230   -3.1480 h4        1 CRZ      0.024100
     32 H1         -1.5570   -0.8110    0.3130 ha        1 CRZ      0.145000
     33 H2         -5.5820   -2.4210   -0.7380 hn        1 CRZ      0.409800
     34 H3         -5.3280   -3.4980   -2.1750 hn        1 CRZ      0.409800
     35 H4         -5.1600    0.3680    1.1880 h1        1 CRZ      0.086700
     36 H5         -1.4760    2.5290    2.9270 ha        1 CRZ      0.159000
     37 H6         -0.3270    3.4980    1.0340 ha        1 CRZ      0.160000
     38 H7          1.0360   -2.7640   -3.1530 h4        1 CRZ      0.043100
     39 H8          0.5570   -0.2280    0.2080 h4        1 CRZ      0.176000
     40 H9          2.6130    0.9410   -0.0510 h1        1 CRZ      0.056700
     41 H10         2.7150   -0.9350    1.6240 hc        1 CRZ      0.068200
     42 H11         4.0160   -1.7260    0.6700 hc        1 CRZ      0.068200
     43 H12         5.0140   -0.4460    2.5610 h1        1 CRZ      0.030450
     44 H13         4.1660    1.0500    2.0500 h1        1 CRZ      0.030450
     45 H14         6.4270    1.0460    1.3210 hn        1 CRZ      0.367800
     46 H15         6.2390    1.3240   -1.0530 h1        1 CRZ      0.030450
     47 H16         4.9100    2.1270   -0.1570 h1        1 CRZ      0.030450
     48 H17         4.7980   -0.6340   -1.5600 hc        1 CRZ      0.068200
     49 H18         3.9850    0.8720   -2.1180 hc        1 CRZ      0.068200
     50 H19        -5.7810    1.4010   -0.9650 hc        1 CRZ      0.057033
     51 H20        -6.4270   -0.2330   -0.6270 hc        1 CRZ      0.057033
     52 H21        -5.1340   -0.0640   -1.8070 hc        1 CRZ      0.057033
@<TRIPOS>BOND
     1    1    2 ar  
     2    1    6 ar  
     3    1   31 1   
     4    2    3 ar  
     5    2   11 1   
     6    3    4 ar  
     7    3   32 1   
     8    4    5 ar  
     9    4    8 1   
    10    5    6 ar  
    11    5    7 1   
    12    7   33 1   
    13    7   34 1   
    14    8    9 1   
    15    9   10 1   
    16    9   30 1   
    17    9   35 1   
    18   10   12 ar  
    19   10   16 ar  
    20   11   20 1   
    21   11   23 2   
    22   12   13 ar  
    23   12   18 1   
    24   13   14 ar  
    25   13   36 1   
    26   14   15 ar  
    27   14   37 1   
    28   15   16 ar  
    29   15   19 1   
    30   16   17 1   
    31   20   21 2   
    32   20   38 1   
    33   21   22 1   
    34   22   23 1   
    35   22   24 1   
    36   23   39 1   
    37   24   25 1   
    38   24   29 1   
    39   24   40 1   
    40   25   26 1   
    41   25   41 1   
    42   25   42 1   
    43   26   27 1   
    44   26   43 1   
    45   26   44 1   
    46   27   28 1   
    47   27   45 1   
    48   28   29 1   
    49   28   46 1   
    50   28   47 1   
    51   29   48 1   
    52   29   49 1   
    53   30   50 1   
    54   30   51 1   
    55   30   52 1   
@<TRIPOS>SUBSTRUCTURE
     1 CRZ         1 TEMP              0 ****  ****    0 ROOT
