@<TRIPOS>MOLECULE
ENZ
   48    50     1     0     0
SMALL
bcc


@<TRIPOS>ATOM
      1 C          -1.4590    1.4010    1.9450 c3        1 ENZ      0.045400
      2 N          -0.6400    1.2590    0.7000 n         1 ENZ     -0.353000
      3 C1         -1.5240    1.3200   -0.2100 c         1 ENZ      0.538400
      4 N1         -2.5980    0.7060    0.0900 n         1 ENZ     -0.392600
      5 C2         -2.8210    1.1490    1.2610 c         1 ENZ      0.691500
      6 C3         -3.2610   -0.1270   -0.6250 ca        1 ENZ      0.068600
      7 C4         -2.8380   -0.4860   -1.8540 ca        1 ENZ     -0.100000
      8 C5         -4.3860   -0.7400   -0.2000 ca        1 ENZ     -0.094000
      9 C6         -5.0980   -1.6180   -0.9360 ca        1 ENZ     -0.122300
     10 C7         -4.6480   -1.9240   -2.1690 ca        1 ENZ      0.037000
     11 C8         -3.5170   -1.3580   -2.6150 ca        1 ENZ     -0.089000
     12 O          -3.8940    1.3760    1.7760 o         1 ENZ     -0.547500
     13 C9         -5.2580   -2.7720   -2.9720 cg        1 ENZ      0.214800
     14 N2         -5.7840   -3.5160   -3.6880 n1        1 ENZ     -0.319800
     15 C10        -6.3530   -2.2640   -0.3730 c3        1 ENZ      0.689200
     16 F          -6.2430   -3.5820   -0.4380 f         1 ENZ     -0.227967
     17 F1         -6.6260   -1.9460    0.8820 f         1 ENZ     -0.227967
     18 F2         -7.3960   -1.9230   -1.1150 f         1 ENZ     -0.227967
     19 S          -1.4780    2.4380   -1.3330 s         1 ENZ     -0.402400
     20 C11        -1.3740    0.2750    2.9950 c3        1 ENZ     -0.104100
     21 C12        -1.4490    2.8040    2.5680 c3        1 ENZ     -0.104100
     22 C13         0.6250    1.0860    0.6940 ca        1 ENZ      0.098600
     23 C14         1.2650    0.8270   -0.4630 ca        1 ENZ     -0.171000
     24 C15         2.5920    0.6300   -0.5570 ca        1 ENZ      0.162900
     25 C16         3.3790    0.6850    0.5390 ca        1 ENZ     -0.168600
     26 C17         2.7520    0.9490    1.7020 ca        1 ENZ     -0.051000
     27 C18         1.4250    1.1400    1.7730 ca        1 ENZ     -0.148000
     28 C19         4.7330    0.4920    0.4720 c         1 ENZ      0.670700
     29 N3          5.4160    0.5710    1.6570 n         1 ENZ     -0.558900
     30 C20         6.8650    0.3860    1.7400 c3        1 ENZ      0.075300
     31 O1          5.3460    0.2590   -0.5440 o         1 ENZ     -0.601100
     32 F3          3.0660    0.3730   -1.7680 f         1 ENZ     -0.134900
     33 H          -1.9070   -0.0920   -2.2920 ha        1 ENZ      0.178000
     34 H1         -4.7710   -0.5460    0.8100 ha        1 ENZ      0.179000
     35 H2         -3.1240   -1.6110   -3.6150 ha        1 ENZ      0.161000
     36 H3         -2.2450    0.3040    3.6880 hc        1 ENZ      0.063867
     37 H4         -1.3650   -0.7270    2.5090 hc        1 ENZ      0.063867
     38 H5         -0.4830    0.3340    3.6540 hc        1 ENZ      0.063867
     39 H6         -0.4490    3.0660    2.9760 hc        1 ENZ      0.063867
     40 H7         -1.7120    3.5820    1.8150 hc        1 ENZ      0.063867
     41 H8         -2.1760    2.8830    3.4070 hc        1 ENZ      0.063867
     42 H9          0.7040    0.7410   -1.4090 ha        1 ENZ      0.167000
     43 H10         3.2890    1.0320    2.6600 ha        1 ENZ      0.173000
     44 H11         1.0290    1.3770    2.7690 ha        1 ENZ      0.154000
     45 H12         4.9100    0.7640    2.5170 hn        1 ENZ      0.316500
     46 H13         7.3960    1.1570    1.1370 h1        1 ENZ      0.047700
     47 H14         7.1830    0.4950    2.8010 h1        1 ENZ      0.047700
     48 H15         7.1530   -0.6320    1.3930 h1        1 ENZ      0.047700
@<TRIPOS>BOND
     1    1    2 1   
     2    1    5 1   
     3    1   20 1   
     4    1   21 1   
     5    2    3 1   
     6    2   22 1   
     7    3    4 1   
     8    3   19 2   
     9    4    5 1   
    10    4    6 1   
    11    5   12 2   
    12    6    7 ar  
    13    6    8 ar  
    14    7   11 ar  
    15    7   33 1   
    16    8    9 ar  
    17    8   34 1   
    18    9   10 ar  
    19    9   15 1   
    20   10   11 ar  
    21   10   13 1   
    22   11   35 1   
    23   13   14 3   
    24   15   16 1   
    25   15   17 1   
    26   15   18 1   
    27   20   36 1   
    28   20   37 1   
    29   20   38 1   
    30   21   39 1   
    31   21   40 1   
    32   21   41 1   
    33   22   23 ar  
    34   22   27 ar  
    35   23   24 ar  
    36   23   42 1   
    37   24   25 ar  
    38   24   32 1   
    39   25   26 ar  
    40   25   28 1   
    41   26   27 ar  
    42   26   43 1   
    43   27   44 1   
    44   28   29 1   
    45   28   31 2   
    46   29   30 1   
    47   29   45 1   
    48   30   46 1   
    49   30   47 1   
    50   30   48 1   
@<TRIPOS>SUBSTRUCTURE
     1 ENZ         1 TEMP              0 ****  ****    0 ROOT
