@<TRIPOS>MOLECULE
DYE
   95    99     1     0     0
SMALL
No Charge or Current Charge


@<TRIPOS>ATOM
      1 O           3.5400    1.4200    0.0000 o         1 DYE     -0.754700
      2 S           3.0400    0.7340   -1.1810 s6        1 DYE      1.432800
      3 O1          1.6360    0.7280   -1.5600 o         1 DYE     -0.754700
      4 O2          3.8780   -0.6350   -1.6160 o         1 DYE     -0.754700
      5 C3          3.8670    1.5980   -2.5870 c3        1 DYE     -0.305100
      6 H6          4.7350    2.1660   -2.1720 h1        1 DYE      0.074950
      7 H7          3.1450    2.3620   -2.9620 h1        1 DYE      0.074950
      8 C2          4.3600    0.7470   -3.7670 c3        1 DYE     -0.030400
      9 H4          4.7170    1.4600   -4.5510 hc        1 DYE      0.044700
     10 H5          5.2650    0.1690   -3.4730 hc        1 DYE      0.044700
     11 C1          3.3250   -0.1940   -4.4040 c3        1 DYE     -0.098900
     12 H2          3.6670   -0.3790   -5.4530 hc        1 DYE      0.047700
     13 H3          2.3490    0.3350   -4.5020 hc        1 DYE      0.047700
     14 C           3.1320   -1.5720   -3.7310 c3        1 DYE     -0.004700
     15 H           4.0700   -2.0460   -3.3680 h1        1 DYE      0.089950
     16 H1          2.4450   -1.5460   -2.8610 h1        1 DYE      0.089950
     17 N           2.4980   -2.4650   -4.7130 nh        1 DYE     -0.101700
     18 C5          1.2240   -2.5040   -4.7590 ca        1 DYE     -0.042200
     19 C7          0.2570   -1.7950   -4.1540 ca        1 DYE     -0.116500
     20 C9         -1.0320   -2.0740   -4.4110 ca        1 DYE     -0.114000
     21 C8         -1.3660   -3.0590   -5.2640 ca        1 DYE     -0.144500
     22 C6         -0.4050   -3.7780   -5.8650 ca        1 DYE     -0.096000
     23 H8         -0.6680   -4.5960   -6.5540 ha        1 DYE      0.137000
     24 H10        -2.4260   -3.2810   -5.4640 ha        1 DYE      0.129500
     25 H11        -1.8290   -1.4880   -3.9200 ha        1 DYE      0.138000
     26 H9          0.4750   -0.9730   -3.4560 ha        1 DYE      0.192500
     27 C4          0.8780   -3.4880   -5.6040 ca        1 DYE     -0.116800
     28 C10         2.0900   -4.2020   -6.1500 c3        1 DYE     -0.057000
     29 C12         2.1450   -4.0990   -7.6820 c3        1 DYE     -0.089100
     30 H12         2.1010   -3.0380   -8.0170 hc        1 DYE      0.055867
     31 H13         3.0770   -4.5460   -8.0940 hc        1 DYE      0.055867
     32 H14         1.2930   -4.6380   -8.1520 hc        1 DYE      0.055867
     33 C13         2.1350   -5.6550   -5.6560 c3        1 DYE     -0.089100
     34 H15         2.0910   -5.7060   -4.5440 hc        1 DYE      0.055867
     35 H16         1.2770   -6.2410   -6.0570 hc        1 DYE      0.055867
     36 H17         3.0630   -6.1760   -5.9820 hc        1 DYE      0.055867
     37 C11         3.1200   -3.3020   -5.4550 ce        1 DYE      0.316600
     38 C14         4.4240   -3.5340   -5.7110 ce        1 DYE     -0.300600
     39 H18         4.5680   -4.4530   -6.2980 ha        1 DYE      0.195000
     40 C15         5.5420   -2.8530   -5.3970 cf        1 DYE     -0.047000
     41 H19         5.3680   -1.8900   -4.9130 ha        1 DYE      0.140500
     42 C16         6.8250   -3.2470   -5.6040 cf        1 DYE     -0.082700
     43 C35         7.0610   -4.6340   -6.1790 c3        1 DYE     -0.053200
     44 C36         8.4900   -4.8330   -6.6740 c3        1 DYE     -0.075400
     45 C37         9.4350   -4.3960   -5.5630 c3        1 DYE     -0.053200
     46 H44         9.3170   -5.0430   -4.6620 hc        1 DYE      0.069700
     47 H45        10.4620   -4.5410   -5.9750 hc        1 DYE      0.069700
     48 H42         8.6650   -5.8980   -6.9550 hc        1 DYE      0.053200
     49 H43         8.6700   -4.2120   -7.5860 hc        1 DYE      0.053200
     50 H40         6.8190   -5.3910   -5.3970 hc        1 DYE      0.069700
     51 H41         6.4220   -4.8240   -7.0730 hc        1 DYE      0.069700
     52 C18         7.8920   -2.4780   -5.2540 ce        1 DYE      0.049396
     53 Cl          7.6070   -0.8320   -4.7440 cl        1 DYE     -0.115400
     54 C17         9.1650   -2.9510   -5.1880 ce        1 DYE     -0.082700
     55 C19        10.1990   -2.2010   -4.7360 cf        1 DYE     -0.047000
     56 H20        10.0380   -1.1380   -4.5330 ha        1 DYE      0.140500
     57 C20        11.4090   -2.6510   -4.3580 cf        1 DYE     -0.214000
     58 H21        11.5550   -3.7420   -4.3550 ha        1 DYE      0.195000
     59 C21        12.4480   -1.9570   -3.8530 c2        1 DYE      0.177800
     60 C24        13.5590   -2.7300   -3.1470 c3        1 DYE      0.022500
     61 C33        14.4600   -3.4740   -4.1420 c3        1 DYE     -0.089100
     62 H34        14.8390   -2.7910   -4.9350 hc        1 DYE      0.055867
     63 H35        15.3410   -3.9210   -3.6290 hc        1 DYE      0.055867
     64 H36        13.9130   -4.3040   -4.6450 hc        1 DYE      0.055867
     65 C34        13.0440   -3.6520   -2.0280 c3        1 DYE     -0.089100
     66 H37        12.3830   -3.1000   -1.3220 hc        1 DYE      0.055867
     67 H38        12.4690   -4.5160   -2.4280 hc        1 DYE      0.055867
     68 H39        13.8850   -4.0820   -1.4400 hc        1 DYE      0.055867
     69 N1         12.6790   -0.6610   -3.8050 nh        1 DYE     -0.433300
     70 C29        11.9810    0.4060   -4.6510 c3        1 DYE      0.172800
     71 C30        12.9260    1.4290   -5.3230 c3        1 DYE     -0.098900
     72 C31        12.5590    1.8000   -6.7740 c3        1 DYE     -0.030400
     73 C32        13.4540    2.9420   -7.2930 c3        1 DYE     -0.305100
     74 S1         13.3830    3.2330   -9.1300 s6        1 DYE      1.432800
     75 O3         14.1330    4.4840   -9.0350 o         1 DYE     -0.754700
     76 O4         11.9230    3.2400   -9.1750 o         1 DYE     -0.754700
     77 O5         14.1740    1.9720   -9.8570 o         1 DYE     -0.754700
     78 H32        14.5200    2.7130   -7.0560 h1        1 DYE      0.074950
     79 H33        13.1860    3.8850   -6.7600 h1        1 DYE      0.074950
     80 H30        12.6780    0.9000   -7.4230 hc        1 DYE      0.044700
     81 H31        11.4880    2.1110   -6.8130 hc        1 DYE      0.044700
     82 H28        13.9630    1.0160   -5.3490 hc        1 DYE      0.047700
     83 H29        12.9400    2.3720   -4.7280 hc        1 DYE      0.047700
     84 H26        11.5040   -0.0950   -5.5240 h1        1 DYE      0.089950
     85 H27        11.1890    0.9170   -4.0560 h1        1 DYE      0.089950
     86 C22        13.6890   -0.4120   -3.0070 ca        1 DYE      0.084600
     87 C23        14.2570   -1.5410   -2.5680 ca        1 DYE     -0.116800
     88 C25        15.3190   -1.5430   -1.7500 ca        1 DYE     -0.096000
     89 H22        15.7740   -2.4910   -1.4190 ha        1 DYE      0.137000
     90 C26        15.8210   -0.3680   -1.3440 ca        1 DYE     -0.144500
     91 H23        16.6910   -0.3430   -0.6670 ha        1 DYE      0.129500
     92 C28        15.2560    0.7780   -1.7580 ca        1 DYE     -0.114000
     93 H25        15.6620    1.7420   -1.4100 ha        1 DYE      0.138000
     94 C27        14.1950    0.7590   -2.5850 ca        1 DYE     -0.116500
     95 H24        13.7490    1.7200   -2.8720 ha        1 DYE      0.192500
@<TRIPOS>BOND
     1    2    1 1   
     2    3    2 1   
     3    4    2 1   
     4    5    2 1   
     5    6    5 1   
     6    7    5 1   
     7    8    5 1   
     8    9    8 1   
     9   10    8 1   
    10   11    8 1   
    11   12   11 1   
    12   13   11 1   
    13   14   11 1   
    14   15   14 1   
    15   16   14 1   
    16   17   14 1   
    17   18   17 1   
    18   19   18 ar  
    19   20   19 ar  
    20   21   20 ar  
    21   22   21 ar  
    22   23   22 1   
    23   24   21 1   
    24   25   20 1   
    25   26   19 1   
    26   27   18 ar  
    27   28   27 1   
    28   29   28 1   
    29   30   29 1   
    30   31   29 1   
    31   32   29 1   
    32   33   28 1   
    33   34   33 1   
    34   35   33 1   
    35   36   33 1   
    36   37   28 1   
    37   38   37 1   
    38   39   38 1   
    39   40   38 2   
    40   41   40 1   
    41   42   40 1   
    42   43   42 1   
    43   44   43 1   
    44   45   44 1   
    45   46   45 1   
    46   47   45 1   
    47   48   44 1   
    48   49   44 1   
    49   50   43 1   
    50   51   43 1   
    51   52   42 2   
    52   53   52 1   
    53   54   52 1   
    54   55   54 2   
    55   56   55 1   
    56   57   55 1   
    57   58   57 1   
    58   59   57 2   
    59   60   59 1   
    60   61   60 1   
    61   62   61 1   
    62   63   61 1   
    63   64   61 1   
    64   65   60 1   
    65   66   65 1   
    66   67   65 1   
    67   68   65 1   
    68   69   59 1   
    69   70   69 1   
    70   71   70 1   
    71   72   71 1   
    72   73   72 1   
    73   74   73 1   
    74   75   74 1   
    75   76   74 1   
    76   77   74 1   
    77   78   73 1   
    78   79   73 1   
    79   80   72 1   
    80   81   72 1   
    81   82   71 1   
    82   83   71 1   
    83   84   70 1   
    84   85   70 1   
    85   86   69 1   
    86   87   86 ar  
    87   88   87 ar  
    88   89   88 1   
    89   90   88 ar  
    90   91   90 1   
    91   92   90 ar  
    92   93   92 1   
    93   94   92 ar  
    94   95   94 1   
    95   37   17 2   
    96   27   22 ar  
    97   54   45 1   
    98   87   60 1   
    99   94   86 ar  
@<TRIPOS>SUBSTRUCTURE
     1 DYE         1 TEMP              0 ****  ****    0 ROOT
