@<TRIPOS>MOLECULE
SNF
   48    50     1     0     0
SMALL
bcc


@<TRIPOS>ATOM
      1 C           5.4550    0.9290    0.4020 ca        1 SNF      0.147100
      2 C1          5.5290    0.3330    1.6040 ca        1 SNF     -0.295300
      3 C2          5.8240    0.1700   -0.6470 ca        1 SNF     -0.211300
      4 C3          5.9440   -0.9390    1.6720 ca        1 SNF      0.421200
      5 C4          6.2320   -1.1060   -0.4940 ca        1 SNF      0.377800
      6 N           6.2780   -1.6240    0.6640 nb        1 SNF     -0.682000
      7 O           5.0400    2.2260    0.2550 os        1 SNF     -0.237200
      8 C5          1.5190    2.1940   -0.5460 ca        1 SNF     -0.150000
      9 C6          0.9600    2.7030    0.5650 ca        1 SNF      0.065600
     10 C7          2.8500    2.0420   -0.6430 ca        1 SNF     -0.110000
     11 C8          1.7880    3.0530    1.5660 ca        1 SNF     -0.150000
     12 C9          3.6840    2.3830    0.3570 ca        1 SNF      0.055100
     13 C10         3.1160    2.8970    1.4630 ca        1 SNF     -0.110000
     14 C11         6.5960   -1.8450   -1.5840 c         1 SNF      0.567600
     15 N1          6.9830   -3.1190   -1.2730 n         1 SNF     -0.550900
     16 C12         7.4100   -4.0810   -2.2890 c3        1 SNF      0.075300
     17 O1          6.5920   -1.4540   -2.7280 o         1 SNF     -0.608100
     18 N2         -0.3530    2.9090    0.7970 n         1 SNF     -0.464100
     19 C13        -1.4840    2.6760    0.0640 c         1 SNF      0.771100
     20 N3         -2.6340    3.0770    0.6880 n         1 SNF     -0.462100
     21 O2         -1.4700    2.1690   -1.0240 o         1 SNF     -0.603100
     22 C14        -3.9390    3.0370    0.3450 ca        1 SNF      0.065600
     23 C15        -4.4590    2.5480   -0.7930 ca        1 SNF     -0.132000
     24 C16        -4.7920    3.5470    1.2540 ca        1 SNF     -0.174000
     25 C17        -5.7840    2.5720   -1.0050 ca        1 SNF     -0.100000
     26 C18        -6.1240    3.5840    1.0660 ca        1 SNF     -0.042300
     27 C19        -6.6140    3.0860   -0.0850 ca        1 SNF     -0.006600
     28 Cl         -8.3120    3.0890   -0.4150 cl        1 SNF     -0.093400
     29 C20        -7.0240    4.1730    2.1310 c3        1 SNF     -0.057800
     30 H          -7.5920    5.0430    1.7300 hc        1 SNF      0.052033
     31 H1         -6.4600    4.5410    3.0180 hc        1 SNF      0.052033
     32 H2         -7.7440    3.4100    2.5040 hc        1 SNF      0.052033
     33 H3          5.2530    0.8790    2.5200 ha        1 SNF      0.161000
     34 H4          5.7770    0.6420   -1.6430 ha        1 SNF      0.187000
     35 H5          6.0090   -1.4460    2.6500 h4        1 SNF      0.027100
     36 H6          0.9210    1.8870   -1.4150 ha        1 SNF      0.157000
     37 H7          3.2740    1.6240   -1.5720 ha        1 SNF      0.154000
     38 H8          1.3810    3.4790    2.5000 ha        1 SNF      0.157000
     39 H9          3.7590    3.1970    2.3070 ha        1 SNF      0.154000
     40 H10         6.9700   -3.4050   -0.2950 hn        1 SNF      0.327500
     41 H11         6.5900   -4.2720   -3.0180 h1        1 SNF      0.045367
     42 H12         8.3120   -3.7090   -2.8260 h1        1 SNF      0.045367
     43 H13         7.6690   -5.0430   -1.7920 h1        1 SNF      0.045367
     44 H14        -0.4790    3.3150    1.7130 hn        1 SNF      0.309500
     45 H15        -2.5310    3.4970    1.6010 hn        1 SNF      0.309500
     46 H16        -3.8360    2.1130   -1.5870 ha        1 SNF      0.174000
     47 H17        -4.3840    3.9540    2.1950 ha        1 SNF      0.133000
     48 H18        -6.1800    2.1620   -1.9500 ha        1 SNF      0.152000
@<TRIPOS>BOND
     1    1    2 ar  
     2    1    3 ar  
     3    1    7 1   
     4    2    4 ar  
     5    2   33 1   
     6    3    5 ar  
     7    3   34 1   
     8    4    6 ar  
     9    4   35 1   
    10    5    6 ar  
    11    5   14 1   
    12    7   12 1   
    13    8    9 ar  
    14    8   10 ar  
    15    8   36 1   
    16    9   11 ar  
    17    9   18 1   
    18   10   12 ar  
    19   10   37 1   
    20   11   13 ar  
    21   11   38 1   
    22   12   13 ar  
    23   13   39 1   
    24   14   15 1   
    25   14   17 2   
    26   15   16 1   
    27   15   40 1   
    28   16   41 1   
    29   16   42 1   
    30   16   43 1   
    31   18   19 1   
    32   18   44 1   
    33   19   20 1   
    34   19   21 2   
    35   20   22 1   
    36   20   45 1   
    37   22   23 ar  
    38   22   24 ar  
    39   23   25 ar  
    40   23   46 1   
    41   24   26 ar  
    42   24   47 1   
    43   25   27 ar  
    44   25   48 1   
    45   26   27 ar  
    46   26   29 1   
    47   27   28 1   
    48   29   30 1   
    49   29   31 1   
    50   29   32 1   
@<TRIPOS>SUBSTRUCTURE
     1 SNF         1 TEMP              0 ****  ****    0 ROOT
