@<TRIPOS>MOLECULE
4RD
  144   147     1     0     0
SMALL
bcc


@<TRIPOS>ATOM
      1 C          -4.5920    7.6890   -2.3630 c3        1 4RD      0.115700
      2 O          -5.0460    6.9180   -3.4540 os        1 4RD     -0.433600
      3 C1         -5.7330    5.7510   -3.0880 c3        1 4RD      0.104100
      4 C2         -4.8120    4.6940   -2.4690 c3        1 4RD     -0.104400
      5 C3         -5.5520    3.3690   -2.1990 c3        1 4RD     -0.060700
      6 C4         -4.6310    2.2710   -1.6220 c3        1 4RD     -0.072400
      7 C5         -3.9300    2.5860   -0.2820 c3        1 4RD     -0.093700
      8 C6         -1.3200    3.7130    3.1090 c3        1 4RD     -0.081400
      9 C7         -2.9740    1.4430    0.1460 c3        1 4RD      0.155100
     10 C8         -3.7220    0.2420    0.7470 c3        1 4RD     -0.186400
     11 C9         -2.9420   -1.0570    0.9190 c         1 4RD      0.574100
     12 O1         -1.7590   -1.1160    0.6710 o         1 4RD     -0.535100
     13 C10        -3.7380   -2.2850    1.3720 c3        1 4RD     -0.124500
     14 C11        -4.9120   -1.9970    2.3240 c3        1 4RD     -0.090100
     15 C12        -2.9160   -3.4160    1.9520 c2        1 4RD     -0.143200
     16 C13        -2.0400   -3.3540    2.9700 c2        1 4RD     -0.095400
     17 C14        -1.6640   -2.0880    3.7010 c3        1 4RD     -0.067900
     18 C15        -1.3970   -4.6200    3.5030 c3        1 4RD      0.173300
     19 O2         -2.4210   -5.4860    3.9720 oh        1 4RD     -0.602800
     20 C16        -0.5070   -5.3770    2.5130 c3        1 4RD      0.013100
     21 O3          0.4270   -4.4970    1.9270 os        1 4RD     -0.411600
     22 C17         0.2010   -4.2230    0.5630 c3        1 4RD      0.102700
     23 C18         0.1760   -6.5400    3.2620 c         1 4RD      0.560100
     24 O4         -0.5330   -7.3830    3.7670 o         1 4RD     -0.551100
     25 C19         1.7000   -6.6320    3.4030 c3        1 4RD     -0.135700
     26 C20         2.2600   -5.3560    4.0550 c3        1 4RD     -0.094100
     27 C21         2.3190   -7.1440    2.0830 c3        1 4RD     -0.066400
     28 C22         3.8230   -6.9250    1.8140 c3        1 4RD     -0.030500
     29 C23         4.7310   -7.5550    2.8790 c3        1 4RD     -0.092100
     30 C24         4.0560   -5.4660    1.4950 c2        1 4RD     -0.136200
     31 C25         4.7730   -4.5850    2.2120 ce        1 4RD     -0.155000
     32 C26         4.7610   -3.2780    1.8960 ce        1 4RD     -0.112000
     33 C27         5.3400   -2.3200    2.6410 cf        1 4RD     -0.146000
     34 C28         5.1650   -1.0210    2.3400 cf        1 4RD     -0.131000
     35 C29         5.5820    0.0600    3.0270 c2        1 4RD     -0.147400
     36 C30         6.3850    0.0240    4.3060 c3        1 4RD     -0.058900
     37 C31         5.1330    1.4410    2.5640 c3        1 4RD      0.179300
     38 C32         6.2950    2.4310    2.3810 c3        1 4RD     -0.070400
     39 C33         5.9630    3.5510    1.3810 c3        1 4RD      0.151100
     40 C34         6.9720    4.6940    1.4130 c3        1 4RD     -0.107400
     41 C35         6.5430    5.7710    0.4090 c3        1 4RD     -0.078400
     42 C36         5.0930    6.2070    0.6910 c3        1 4RD     -0.057700
     43 C37         4.6430    7.2250   -0.3730 c3        1 4RD     -0.095100
     44 C38         4.1630    4.9960    0.7840 c3        1 4RD      0.278600
     45 O5          4.0660    4.3710   -0.4890 oh        1 4RD     -0.600800
     46 O6          4.6860    4.0320    1.6690 os        1 4RD     -0.465600
     47 C39         2.7310    5.3170    1.2960 c         1 4RD      0.506100
     48 O7          2.5260    6.3950    1.8150 o         1 4RD     -0.461100
     49 C40         1.7870    4.3430    1.1750 c         1 4RD      0.593100
     50 O8          2.1180    3.2580    0.7430 o         1 4RD     -0.605100
     51 N           0.4880    4.4940    1.6040 n         1 4RD     -0.433800
     52 C41        -0.2250    5.7620    1.7180 c3        1 4RD      0.091000
     53 C42        -0.4430    6.0780    3.2060 c3        1 4RD     -0.107400
     54 C43        -0.6780    4.7820    4.0060 c3        1 4RD     -0.079400
     55 C44        -0.3600    3.3450    1.9520 c3        1 4RD      0.058700
     56 C45        -1.1010    2.8000    0.7260 c         1 4RD      0.619100
     57 O9         -0.8810    3.1630   -0.4090 o         1 4RD     -0.519000
     58 O10        -2.0620    1.9080    1.1030 os        1 4RD     -0.450900
     59 O11         4.1970    1.9940    3.4710 os        1 4RD     -0.422600
     60 C46         2.9860    1.2700    3.5330 c3        1 4RD      0.116700
     61 C47        -6.2210    2.8640   -3.4930 c3        1 4RD     -0.076400
     62 C48        -7.1510    3.9260   -4.0940 c3        1 4RD     -0.077400
     63 C49        -6.3710    5.2090   -4.3590 c3        1 4RD      0.149100
     64 O12        -7.2350    6.1950   -4.8730 oh        1 4RD     -0.603800
     65 C50        -4.9300    2.9640    0.8260 c3        1 4RD     -0.089100
     66 H          -6.5460    6.0150   -2.3700 h1        1 4RD      0.049700
     67 H1         -6.3720    3.5680   -1.4660 hc        1 4RD      0.049700
     68 H2         -3.3080    3.4950   -0.4640 hc        1 4RD      0.073700
     69 H3         -2.4010    1.0870   -0.7440 h1        1 4RD      0.101700
     70 H4         -4.1720   -2.6600    0.4100 hc        1 4RD      0.077700
     71 H5         -3.1270   -4.4120    1.5250 ha        1 4RD      0.145000
     72 H6         -0.7820   -4.3670    4.3980 h1        1 4RD      0.046700
     73 H7         -1.1300   -5.8520    1.7200 h1        1 4RD      0.084700
     74 H8          1.8940   -7.4340    4.1640 hc        1 4RD      0.069700
     75 H9          4.0710   -7.4610    0.8590 hc        1 4RD      0.058700
     76 H10         3.5010   -5.1060    0.6100 ha        1 4RD      0.129000
     77 H11         5.3140   -4.9260    3.1090 ha        1 4RD      0.125000
     78 H12         4.1820   -2.9700    1.0080 ha        1 4RD      0.138000
     79 H13         5.9040   -2.6200    3.5370 ha        1 4RD      0.125000
     80 H14         4.5610   -0.8060    1.4410 ha        1 4RD      0.129000
     81 H15         4.6360    1.3600    1.5690 h1        1 4RD      0.048700
     82 H16         5.9520    3.0900    0.3640 h1        1 4RD      0.067700
     83 H17         5.1030    6.7190    1.6860 hc        1 4RD      0.066700
     84 H18         0.2900    2.5170    2.3280 h1        1 4RD      0.112700
     85 H19        -5.5900    5.0280   -5.1340 h1        1 4RD      0.047700
     86 H20        -3.7650    7.1730   -1.8310 h1        1 4RD      0.036700
     87 H21        -4.1930    8.6470   -2.7670 h1        1 4RD      0.036700
     88 H22        -5.4300    7.9210   -1.6700 h1        1 4RD      0.036700
     89 H23        -3.9470    4.5050   -3.1470 hc        1 4RD      0.058200
     90 H24        -4.4090    5.0820   -1.5070 hc        1 4RD      0.058200
     91 H25        -5.2400    1.3460   -1.4990 hc        1 4RD      0.045700
     92 H26        -3.8520    2.0390   -2.3870 hc        1 4RD      0.045700
     93 H27        -1.5770    2.8060    3.7060 hc        1 4RD      0.062200
     94 H28        -2.2810    4.1210    2.7160 hc        1 4RD      0.062200
     95 H29        -4.1050    0.5310    1.7540 hc        1 4RD      0.085700
     96 H30        -4.5920   -0.0130    0.1000 hc        1 4RD      0.085700
     97 H31        -5.6680   -1.3170    1.8730 hc        1 4RD      0.043033
     98 H32        -5.4540   -2.9370    2.5800 hc        1 4RD      0.043033
     99 H33        -4.5660   -1.5420    3.2790 hc        1 4RD      0.043033
    100 H34        -1.9050   -2.1870    4.7840 hc        1 4RD      0.049033
    101 H35        -0.5710   -1.9030    3.5960 hc        1 4RD      0.049033
    102 H36        -2.1910   -1.1810    3.3420 hc        1 4RD      0.049033
    103 H37        -2.0470   -6.3150    4.2800 ho        1 4RD      0.423000
    104 H38         0.9720   -3.4920    0.2310 h1        1 4RD      0.049367
    105 H39         0.3090   -5.1520   -0.0380 h1        1 4RD      0.049367
    106 H40        -0.8030   -3.7750    0.4110 h1        1 4RD      0.049367
    107 H41         3.2780   -5.5040    4.4730 hc        1 4RD      0.048033
    108 H42         2.3140   -4.4860    3.3700 hc        1 4RD      0.048033
    109 H43         1.6260   -5.0480    4.9190 hc        1 4RD      0.048033
    110 H44         2.1120   -8.2400    2.0180 hc        1 4RD      0.052200
    111 H45         1.7540   -6.7090    1.2250 hc        1 4RD      0.052200
    112 H46         4.5890   -7.1170    3.8890 hc        1 4RD      0.038033
    113 H47         4.5270   -8.6470    2.9720 hc        1 4RD      0.038033
    114 H48         5.8060   -7.4420    2.6080 hc        1 4RD      0.038033
    115 H49         5.8080    0.4950    5.1340 hc        1 4RD      0.047033
    116 H50         6.6660   -0.9930    4.6470 hc        1 4RD      0.047033
    117 H51         7.3370    0.5860    4.1830 hc        1 4RD      0.047033
    118 H52         6.5730    2.8650    3.3700 hc        1 4RD      0.064200
    119 H53         7.1930    1.8890    1.9960 hc        1 4RD      0.064200
    120 H54         7.0160    5.1330    2.4380 hc        1 4RD      0.053700
    121 H55         7.9920    4.3180    1.1640 hc        1 4RD      0.053700
    122 H56         7.2330    6.6460    0.4720 hc        1 4RD      0.056700
    123 H57         6.6250    5.3650   -0.6260 hc        1 4RD      0.056700
    124 H58         3.6080    7.5910   -0.1960 hc        1 4RD      0.049367
    125 H59         5.3090    8.1170   -0.3770 hc        1 4RD      0.049367
    126 H60         4.6690    6.7850   -1.3950 hc        1 4RD      0.049367
    127 H61         3.6860    3.4960   -0.3860 ho        1 4RD      0.442000
    128 H62         0.2380    6.5960    1.1500 h1        1 4RD      0.065200
    129 H63        -1.2160    5.6500    1.2160 h1        1 4RD      0.065200
    130 H64         0.4350    6.6190    3.6300 hc        1 4RD      0.056700
    131 H65        -1.3200    6.7610    3.3050 hc        1 4RD      0.056700
    132 H66        -1.3130    4.9890    4.8990 hc        1 4RD      0.050200
    133 H67         0.2950    4.3850    4.3830 hc        1 4RD      0.050200
    134 H68         2.2840    1.8340    4.1860 h1        1 4RD      0.033367
    135 H69         2.5310    1.1780    2.5220 h1        1 4RD      0.033367
    136 H70         3.1520    0.2660    3.9810 h1        1 4RD      0.033367
    137 H71        -5.4370    2.5970   -4.2400 hc        1 4RD      0.043700
    138 H72        -6.8080    1.9370   -3.2870 hc        1 4RD      0.043700
    139 H73        -7.5990    3.5490   -5.0440 hc        1 4RD      0.056200
    140 H74        -7.9920    4.1330   -3.3900 hc        1 4RD      0.056200
    141 H75        -6.7290    7.0080   -4.9650 ho        1 4RD      0.416000
    142 H76        -5.7230    2.1920    0.9440 hc        1 4RD      0.036033
    143 H77        -4.4230    3.0920    1.8080 hc        1 4RD      0.036033
    144 H78        -5.4380    3.9310    0.6110 hc        1 4RD      0.036033
@<TRIPOS>BOND
     1    1    2 1   
     2    1   86 1   
     3    1   87 1   
     4    1   88 1   
     5    2    3 1   
     6    3    4 1   
     7    3   63 1   
     8    3   66 1   
     9    4    5 1   
    10    4   89 1   
    11    4   90 1   
    12    5    6 1   
    13    5   61 1   
    14    5   67 1   
    15    6    7 1   
    16    6   91 1   
    17    6   92 1   
    18    7    9 1   
    19    7   65 1   
    20    7   68 1   
    21    8   54 1   
    22    8   55 1   
    23    8   93 1   
    24    8   94 1   
    25    9   10 1   
    26    9   58 1   
    27    9   69 1   
    28   10   11 1   
    29   10   95 1   
    30   10   96 1   
    31   11   12 2   
    32   11   13 1   
    33   13   14 1   
    34   13   15 1   
    35   13   70 1   
    36   14   97 1   
    37   14   98 1   
    38   14   99 1   
    39   15   16 2   
    40   15   71 1   
    41   16   17 1   
    42   16   18 1   
    43   17  100 1   
    44   17  101 1   
    45   17  102 1   
    46   18   19 1   
    47   18   20 1   
    48   18   72 1   
    49   19  103 1   
    50   20   21 1   
    51   20   23 1   
    52   20   73 1   
    53   21   22 1   
    54   22  104 1   
    55   22  105 1   
    56   22  106 1   
    57   23   24 2   
    58   23   25 1   
    59   25   26 1   
    60   25   27 1   
    61   25   74 1   
    62   26  107 1   
    63   26  108 1   
    64   26  109 1   
    65   27   28 1   
    66   27  110 1   
    67   27  111 1   
    68   28   29 1   
    69   28   30 1   
    70   28   75 1   
    71   29  112 1   
    72   29  113 1   
    73   29  114 1   
    74   30   31 2   
    75   30   76 1   
    76   31   32 1   
    77   31   77 1   
    78   32   33 2   
    79   32   78 1   
    80   33   34 1   
    81   33   79 1   
    82   34   35 2   
    83   34   80 1   
    84   35   36 1   
    85   35   37 1   
    86   36  115 1   
    87   36  116 1   
    88   36  117 1   
    89   37   38 1   
    90   37   59 1   
    91   37   81 1   
    92   38   39 1   
    93   38  118 1   
    94   38  119 1   
    95   39   40 1   
    96   39   46 1   
    97   39   82 1   
    98   40   41 1   
    99   40  120 1   
   100   40  121 1   
   101   41   42 1   
   102   41  122 1   
   103   41  123 1   
   104   42   43 1   
   105   42   44 1   
   106   42   83 1   
   107   43  124 1   
   108   43  125 1   
   109   43  126 1   
   110   44   45 1   
   111   44   46 1   
   112   44   47 1   
   113   45  127 1   
   114   47   48 2   
   115   47   49 1   
   116   49   50 2   
   117   49   51 1   
   118   51   52 1   
   119   51   55 1   
   120   52   53 1   
   121   52  128 1   
   122   52  129 1   
   123   53   54 1   
   124   53  130 1   
   125   53  131 1   
   126   54  132 1   
   127   54  133 1   
   128   55   56 1   
   129   55   84 1   
   130   56   57 2   
   131   56   58 1   
   132   59   60 1   
   133   60  134 1   
   134   60  135 1   
   135   60  136 1   
   136   61   62 1   
   137   61  137 1   
   138   61  138 1   
   139   62   63 1   
   140   62  139 1   
   141   62  140 1   
   142   63   64 1   
   143   63   85 1   
   144   64  141 1   
   145   65  142 1   
   146   65  143 1   
   147   65  144 1   
@<TRIPOS>SUBSTRUCTURE
     1 4RD         1 TEMP              0 ****  ****    0 ROOT
