@<TRIPOS>MOLECULE
10V
   87    91     1     0     0
SMALL
bcc


@<TRIPOS>ATOM
      1 F           0.3400    3.7110   -6.8400 f         1 10V     -0.222967
      2 F1          1.9180    4.1410   -5.4680 f         1 10V     -0.222967
      3 F2         -0.0280    4.9770   -5.1500 f         1 10V     -0.222967
      4 O           0.0350    0.0670    0.1680 os        1 10V     -0.417600
      5 O1         -1.9470    1.0380   -0.2280 os        1 10V     -0.431600
      6 O2          1.9330    0.5310    2.6760 oh        1 10V     -0.613800
      7 O3         -3.3600    2.8750   -3.0120 oh        1 10V     -0.600800
      8 O4         -2.6260   -2.3670    0.0990 oh        1 10V     -0.523100
      9 O5         -2.5500    0.4040    4.7600 oh        1 10V     -0.502100
     10 O6          0.1130   -1.1050    5.1370 o         1 10V     -0.512100
     11 O7          3.1510   -0.2440    5.3390 os        1 10V     -0.412900
     12 O8         -5.0700   -2.7680    0.5590 o         1 10V     -0.533100
     13 O9         -5.0030   -0.1660    5.0130 o         1 10V     -0.550100
     14 O10         0.7130    1.5610   -4.9130 o         1 10V     -0.540100
     15 O11        -7.4160   -3.5130    0.8910 os        1 10V     -0.298900
     16 O12         5.0690    0.7270    6.0190 o         1 10V     -0.484000
     17 N          -0.6880    2.9110   -3.7580 n         1 10V     -0.530900
     18 C          -0.3310   -1.0970    0.8780 c3        1 10V      0.200400
     19 C1          0.8480   -0.3090    3.0030 c3        1 10V      0.074800
     20 C2          0.7460   -1.4000    1.9300 c3        1 10V     -0.103400
     21 C3         -0.4060    0.5590    3.0610 c3        1 10V     -0.065100
     22 C4         -1.6510   -0.9910    1.6420 ca        1 10V     -0.097300
     23 C5         -1.6490   -0.2560    2.7600 ca        1 10V     -0.028300
     24 C6         -0.8600    0.4080   -0.8700 c3        1 10V      0.329900
     25 C7         -1.2030    1.8800   -2.8540 c3        1 10V      0.113700
     26 C8         -0.1810    1.3850   -1.8190 c3        1 10V     -0.128400
     27 C9         -2.3900    2.4590   -2.0830 c3        1 10V      0.095100
     28 C10        -2.9540    1.4250   -1.1200 c3        1 10V      0.120100
     29 C11         1.0510   -0.9400    4.3860 c         1 10V      0.550100
     30 C12        -2.7640   -1.6440    1.2520 ca        1 10V      0.174100
     31 C13        -2.7200   -0.2410    3.5690 ca        1 10V      0.164100
     32 C14        -3.8880   -1.5660    2.0180 ca        1 10V     -0.189600
     33 C15        -3.8560   -0.8740    3.1830 ca        1 10V     -0.186600
     34 C16        -4.1220    1.9700   -0.2960 c3        1 10V     -0.101100
     35 C17         2.4700   -1.3490    4.7800 c3        1 10V      0.046400
     36 C18        -5.0460   -2.1910    1.6270 c         1 10V      0.607300
     37 C19        -4.9700   -0.8050    3.9760 c         1 10V      0.599300
     38 C20        -6.1610   -2.1510    2.4220 ca        1 10V     -0.160600
     39 C21        -6.1010   -1.4600    3.5800 ca        1 10V     -0.095600
     40 C22         0.2370    2.6570   -4.7260 c         1 10V      0.632100
     41 C23        -7.3160   -2.7890    2.0610 ca        1 10V      0.173100
     42 C24        -7.1890   -1.4030    4.3760 ca        1 10V     -0.119000
     43 C25         0.6190    3.8960   -5.5580 c3        1 10V      0.555900
     44 C26        -8.3710   -2.7010    2.8960 ca        1 10V     -0.193000
     45 C27        -8.3250   -2.0190    4.0420 ca        1 10V     -0.078000
     46 C28         4.5000   -0.2420    5.5630 c         1 10V      0.633100
     47 C29         5.2320   -1.5350    5.2170 c3        1 10V     -0.165400
     48 C30         6.7080   -1.5490    5.6560 c3        1 10V     -0.074400
     49 C31        -8.6020   -4.2000    0.5650 c3        1 10V      0.108700
     50 C32         7.3990   -2.8770    5.3030 c3        1 10V     -0.080400
     51 C33         8.8710   -2.8860    5.7390 c3        1 10V     -0.093100
     52 H           1.7810    0.9400    1.8210 ho        1 10V      0.444000
     53 H1         -4.0510    3.3780   -2.5750 ho        1 10V      0.414000
     54 H2         -3.2710   -3.0630   -0.0660 ho        1 10V      0.465000
     55 H3         -1.6140    0.3150    5.0130 ho        1 10V      0.461000
     56 H4         -1.0690    3.8530   -3.6640 hn        1 10V      0.339500
     57 H5         -0.3020   -1.9500    0.1610 h1        1 10V      0.079700
     58 H6          1.7340   -1.5580    1.4370 hc        1 10V      0.084200
     59 H7          0.4890   -2.3740    2.4110 hc        1 10V      0.084200
     60 H8         -0.4320    1.1480    4.0020 hc        1 10V      0.090700
     61 H9         -0.3660    1.3660    2.2940 hc        1 10V      0.090700
     62 H10        -1.1920   -0.5050   -1.4110 h2        1 10V      0.078700
     63 H11        -1.5640    1.0170   -3.4660 h1        1 10V      0.072700
     64 H12         0.2270    2.2520   -1.2490 hc        1 10V      0.084700
     65 H13         0.6790    0.8820   -2.3190 hc        1 10V      0.084700
     66 H14        -2.0760    3.3700   -1.5230 h1        1 10V      0.060700
     67 H15        -3.3090    0.5250   -1.6760 h1        1 10V      0.055700
     68 H16        -3.8180    2.8660    0.2900 hc        1 10V      0.051700
     69 H17        -4.4920    1.2040    0.4240 hc        1 10V      0.051700
     70 H18        -4.9790    2.2570   -0.9460 hc        1 10V      0.051700
     71 H19         2.9850   -1.7160    3.8660 h1        1 10V      0.094200
     72 H20         2.4140   -2.1650    5.5360 h1        1 10V      0.094200
     73 H21        -7.2270   -0.8620    5.3360 ha        1 10V      0.163000
     74 H22        -9.3330   -3.1890    2.6780 ha        1 10V      0.148000
     75 H23        -9.2090   -1.9680    4.7010 ha        1 10V      0.145000
     76 H24         4.7230   -2.3930    5.7160 hc        1 10V      0.075200
     77 H25         5.2030   -1.6760    4.1110 hc        1 10V      0.075200
     78 H26         7.2550   -0.7130    5.1590 hc        1 10V      0.060700
     79 H27         6.7700   -1.3870    6.7590 hc        1 10V      0.060700
     80 H28        -8.4330   -4.7170   -0.4060 h1        1 10V      0.051367
     81 H29        -8.8280   -4.9770    1.3280 h1        1 10V      0.051367
     82 H30        -9.4440   -3.4850    0.4240 h1        1 10V      0.051367
     83 H31         6.8650   -3.7210    5.8000 hc        1 10V      0.038200
     84 H32         7.3420   -3.0480    4.2020 hc        1 10V      0.038200
     85 H33         9.3590   -3.8540    5.4770 hc        1 10V      0.036033
     86 H34         9.4440   -2.0720    5.2390 hc        1 10V      0.036033
     87 H35         8.9650   -2.7470    6.8400 hc        1 10V      0.036033
@<TRIPOS>BOND
     1    1   43 1   
     2    2   43 1   
     3    3   43 1   
     4    4   18 1   
     5    4   24 1   
     6    5   24 1   
     7    5   28 1   
     8    6   19 1   
     9    6   52 1   
    10    7   27 1   
    11    7   53 1   
    12    8   30 1   
    13    8   54 1   
    14    9   31 1   
    15    9   55 1   
    16   10   29 2   
    17   11   35 1   
    18   11   46 1   
    19   12   36 2   
    20   13   37 2   
    21   14   40 2   
    22   15   41 1   
    23   15   49 1   
    24   16   46 2   
    25   17   25 1   
    26   17   40 1   
    27   17   56 1   
    28   18   20 1   
    29   18   22 1   
    30   18   57 1   
    31   19   20 1   
    32   19   21 1   
    33   19   29 1   
    34   20   58 1   
    35   20   59 1   
    36   21   23 1   
    37   21   60 1   
    38   21   61 1   
    39   22   23 ar  
    40   22   30 ar  
    41   23   31 ar  
    42   24   26 1   
    43   24   62 1   
    44   25   26 1   
    45   25   27 1   
    46   25   63 1   
    47   26   64 1   
    48   26   65 1   
    49   27   28 1   
    50   27   66 1   
    51   28   34 1   
    52   28   67 1   
    53   29   35 1   
    54   30   32 ar  
    55   31   33 ar  
    56   32   33 ar  
    57   32   36 1   
    58   33   37 1   
    59   34   68 1   
    60   34   69 1   
    61   34   70 1   
    62   35   71 1   
    63   35   72 1   
    64   36   38 1   
    65   37   39 1   
    66   38   39 ar  
    67   38   41 ar  
    68   39   42 ar  
    69   40   43 1   
    70   41   44 ar  
    71   42   45 ar  
    72   42   73 1   
    73   44   45 ar  
    74   44   74 1   
    75   45   75 1   
    76   46   47 1   
    77   47   48 1   
    78   47   76 1   
    79   47   77 1   
    80   48   50 1   
    81   48   78 1   
    82   48   79 1   
    83   49   80 1   
    84   49   81 1   
    85   49   82 1   
    86   50   51 1   
    87   50   83 1   
    88   50   84 1   
    89   51   85 1   
    90   51   86 1   
    91   51   87 1   
@<TRIPOS>SUBSTRUCTURE
     1 10V         1 TEMP              0 ****  ****    0 ROOT
