@<TRIPOS>MOLECULE
5SD
   66    70     1     0     0
SMALL
bcc


@<TRIPOS>ATOM
      1 C          -1.9200   -0.3150    0.9150 ca        1 5SD     -0.241300
      2 C1         -0.6340   -1.0200    0.6350 c3        1 5SD      0.220100
      3 C2         -1.7010    0.9860    1.0920 ca        1 5SD      0.201100
      4 C3          0.3050    0.2030    0.5660 c3        1 5SD      0.218100
      5 O          -0.5240    1.3110    0.9520 os        1 5SD     -0.317900
      6 C4         -0.1330   -1.9250    1.7500 c3        1 5SD      0.149100
      7 C5          1.3360   -1.5400    1.9610 c3        1 5SD     -0.172700
      8 C6          1.3390   -0.0240    1.6940 c3        1 5SD     -0.020400
      9 C7          1.8680   -1.9580    3.3250 c         1 5SD      0.628100
     10 O1          1.2890   -2.7600    4.0160 o         1 5SD     -0.588100
     11 C8          0.9630    0.4380   -0.7860 ca        1 5SD     -0.115300
     12 C9          1.6550   -0.5240   -1.4200 ca        1 5SD     -0.062500
     13 C10         0.9120    1.6370   -1.3930 ca        1 5SD     -0.062500
     14 C11         2.2500   -0.2970   -2.6000 ca        1 5SD     -0.189500
     15 C12         1.5100    1.8570   -2.5750 ca        1 5SD     -0.189500
     16 C13         2.1990    0.8960   -3.2210 ca        1 5SD      0.132100
     17 O2          2.8410    1.0440   -4.4270 os        1 5SD     -0.327900
     18 C14         2.7990    2.2990   -5.0660 c3        1 5SD      0.113700
     19 O3         -0.8430   -1.6650    2.9400 oh        1 5SD     -0.589800
     20 C15         4.9830    2.0260    1.0380 ca        1 5SD     -0.122000
     21 C16         4.8910    0.7240    0.7310 ca        1 5SD     -0.129500
     22 C17         3.9160    2.6590    1.5450 ca        1 5SD     -0.129500
     23 C18         3.7400    0.0640    0.9320 ca        1 5SD     -0.115500
     24 C19         2.7710    1.9890    1.7450 ca        1 5SD     -0.115500
     25 C20         2.6600    0.6800    1.4490 ca        1 5SD     -0.094300
     26 N           3.0510   -1.3640    3.6900 n         1 5SD     -0.361400
     27 O4          3.5990   -1.4520    4.8860 os        1 5SD     -0.262900
     28 C21         4.4490   -2.5680    5.0130 c3        1 5SD      0.113700
     29 O5         -0.7790   -1.7280   -0.5690 oh        1 5SD     -0.586800
     30 C22        -3.1380   -0.8720    0.9780 ca        1 5SD      0.225100
     31 C23        -4.1280   -0.0140    1.2990 ca        1 5SD     -0.269000
     32 C24        -2.7160    1.8060    1.3910 ca        1 5SD     -0.261000
     33 C25        -3.9660    1.3120    1.5090 ca        1 5SD      0.197100
     34 O6         -3.2590   -2.2230    0.7690 os        1 5SD     -0.335900
     35 C26        -4.4590   -2.8560    1.1440 c3        1 5SD      0.115700
     36 O7         -5.0770    2.0590    1.8210 os        1 5SD     -0.325900
     37 C27        -4.9230    3.4400    2.0590 c3        1 5SD      0.112700
     38 H          -0.2730   -3.0070    1.5270 h1        1 5SD      0.064700
     39 H1          1.9310   -2.0950    1.1990 hc        1 5SD      0.092700
     40 H2          0.9160    0.4090    2.6370 hc        1 5SD      0.087700
     41 H3          1.7530   -1.5260   -0.9740 ha        1 5SD      0.145000
     42 H4          0.3770    2.4770   -0.9230 ha        1 5SD      0.145000
     43 H5          2.8080   -1.1210   -3.0790 ha        1 5SD      0.142000
     44 H6          1.4190    2.8700   -2.9990 ha        1 5SD      0.142000
     45 H7          3.3730    2.2160   -6.0160 h1        1 5SD      0.043700
     46 H8          1.7490    2.5710   -5.3170 h1        1 5SD      0.043700
     47 H9          3.2870    3.0730   -4.4320 h1        1 5SD      0.043700
     48 H10        -0.5330   -2.2590    3.6290 ho        1 5SD      0.430000
     49 H11         5.9260    2.5710    0.8710 ha        1 5SD      0.133000
     50 H12         5.7630    0.1970    0.3090 ha        1 5SD      0.135000
     51 H13         3.9800    3.7310    1.7960 ha        1 5SD      0.135000
     52 H14         3.7090   -1.0020    0.6620 ha        1 5SD      0.137000
     53 H15         1.9060    2.5330    2.1590 ha        1 5SD      0.137000
     54 H16         3.4790   -0.7430    3.0190 hn        1 5SD      0.315500
     55 H17         4.9300   -2.5310    6.0160 h1        1 5SD      0.050700
     56 H18         3.8600   -3.5090    4.9270 h1        1 5SD      0.050700
     57 H19         5.2370   -2.5340    4.2280 h1        1 5SD      0.050700
     58 H20        -1.6550   -2.1270   -0.5460 ho        1 5SD      0.430000
     59 H21        -5.1570   -0.3960    1.3980 ha        1 5SD      0.157000
     60 H22        -2.4880    2.8730    1.5340 ha        1 5SD      0.157000
     61 H23        -4.3300   -3.9500    0.9840 h1        1 5SD      0.049367
     62 H24        -4.6650   -2.6790    2.2230 h1        1 5SD      0.049367
     63 H25        -5.2980   -2.5090    0.5000 h1        1 5SD      0.049367
     64 H26        -5.9260    3.8570    2.3010 h1        1 5SD      0.047700
     65 H27        -4.2560    3.6100    2.9330 h1        1 5SD      0.047700
     66 H28        -4.5480    3.9500    1.1440 h1        1 5SD      0.047700
@<TRIPOS>BOND
     1    1    2 1   
     2    1    3 ar  
     3    1   30 ar  
     4    2    4 1   
     5    2    6 1   
     6    2   29 1   
     7    3    5 1   
     8    3   32 ar  
     9    4    5 1   
    10    4    8 1   
    11    4   11 1   
    12    6    7 1   
    13    6   19 1   
    14    6   38 1   
    15    7    8 1   
    16    7    9 1   
    17    7   39 1   
    18    8   25 1   
    19    8   40 1   
    20    9   10 2   
    21    9   26 1   
    22   11   12 ar  
    23   11   13 ar  
    24   12   14 ar  
    25   12   41 1   
    26   13   15 ar  
    27   13   42 1   
    28   14   16 ar  
    29   14   43 1   
    30   15   16 ar  
    31   15   44 1   
    32   16   17 1   
    33   17   18 1   
    34   18   45 1   
    35   18   46 1   
    36   18   47 1   
    37   19   48 1   
    38   20   21 ar  
    39   20   22 ar  
    40   20   49 1   
    41   21   23 ar  
    42   21   50 1   
    43   22   24 ar  
    44   22   51 1   
    45   23   25 ar  
    46   23   52 1   
    47   24   25 ar  
    48   24   53 1   
    49   26   27 1   
    50   26   54 1   
    51   27   28 1   
    52   28   55 1   
    53   28   56 1   
    54   28   57 1   
    55   29   58 1   
    56   30   31 ar  
    57   30   34 1   
    58   31   33 ar  
    59   31   59 1   
    60   32   33 ar  
    61   32   60 1   
    62   33   36 1   
    63   34   35 1   
    64   35   61 1   
    65   35   62 1   
    66   35   63 1   
    67   36   37 1   
    68   37   64 1   
    69   37   65 1   
    70   37   66 1   
@<TRIPOS>SUBSTRUCTURE
     1 5SD         1 TEMP              0 ****  ****    0 ROOT
