@<TRIPOS>MOLECULE
10V 
87 91 1 0 0
SMALL
USER_CHARGES


@<TRIPOS>ATOM
      1 F           0.3399    3.7111   -6.8399 F         1     10V     0.0000
      2 F           1.9178    4.1406   -5.4679 F         1     10V     0.0000
      3 F          -0.0281    4.9772   -5.1501 F         1     10V     0.0000
      4 O           0.0348    0.0666    0.1684 O.3       1     10V     0.0000
      5 O          -1.9469    1.0378   -0.2276 O.3       1     10V     0.0000
      6 O           1.9326    0.5309    2.6764 O.3       1     10V     0.0000
      7 O          -3.3601    2.8752   -3.0121 O.3       1     10V     0.0000
      8 O          -2.6263   -2.3668    0.0988 O.3       1     10V     0.0000
      9 O          -2.5501    0.4040    4.7598 O.3       1     10V     0.0000
     10 O           0.1134   -1.1055    5.1369 O.2       1     10V     0.0000
     11 O           3.1513   -0.2444    5.3391 O.3       1     10V     0.0000
     12 O          -5.0703   -2.7680    0.5593 O.2       1     10V     0.0000
     13 O          -5.0035   -0.1660    5.0125 O.2       1     10V     0.0000
     14 O           0.7132    1.5608   -4.9131 O.2       1     10V     0.0000
     15 O          -7.4162   -3.5126    0.8914 O.3       1     10V     0.0000
     16 O           5.0695    0.7274    6.0190 O.2       1     10V     0.0000
     17 N          -0.6880    2.9109   -3.7580 N.am      1     10V     0.0000
     18 C          -0.3314   -1.0965    0.8781 C.3       1     10V     0.0000
     19 C           0.8478   -0.3089    3.0028 C.3       1     10V     0.0000
     20 C           0.7464   -1.3996    1.9298 C.3       1     10V     0.0000
     21 C          -0.4060    0.5587    3.0606 C.3       1     10V     0.0000
     22 C          -1.6513   -0.9912    1.6417 C.ar      1     10V     0.0000
     23 C          -1.6485   -0.2555    2.7600 C.ar      1     10V     0.0000
     24 C          -0.8604    0.4084   -0.8699 C.3       1     10V     0.0000
     25 C          -1.2031    1.8796   -2.8537 C.3       1     10V     0.0000
     26 C          -0.1815    1.3848   -1.8194 C.3       1     10V     0.0000
     27 C          -2.3904    2.4589   -2.0832 C.3       1     10V     0.0000
     28 C          -2.9537    1.4252   -1.1197 C.3       1     10V     0.0000
     29 C           1.0510   -0.9403    4.3862 C.2       1     10V     0.0000
     30 C          -2.7639   -1.6439    1.2522 C.ar      1     10V     0.0000
     31 C          -2.7199   -0.2409    3.5689 C.ar      1     10V     0.0000
     32 C          -3.8884   -1.5656    2.0180 C.ar      1     10V     0.0000
     33 C          -3.8562   -0.8744    3.1827 C.ar      1     10V     0.0000
     34 C          -4.1216    1.9696   -0.2964 C.3       1     10V     0.0000
     35 C           2.4699   -1.3491    4.7799 C.3       1     10V     0.0000
     36 C          -5.0459   -2.1910    1.6267 C.2       1     10V     0.0000
     37 C          -4.9696   -0.8050    3.9757 C.2       1     10V     0.0000
     38 C          -6.1612   -2.1513    2.4224 C.ar      1     10V     0.0000
     39 C          -6.1010   -1.4605    3.5805 C.ar      1     10V     0.0000
     40 C           0.2372    2.6573   -4.7264 C.2       1     10V     0.0000
     41 C          -7.3157   -2.7890    2.0609 C.ar      1     10V     0.0000
     42 C          -7.1892   -1.4026    4.3760 C.ar      1     10V     0.0000
     43 C           0.6192    3.8959   -5.5583 C.3       1     10V     0.0000
     44 C          -8.3706   -2.7014    2.8962 C.ar      1     10V     0.0000
     45 C          -8.3251   -2.0194    4.0423 C.ar      1     10V     0.0000
     46 C           4.4996   -0.2424    5.5631 C.2       1     10V     0.0000
     47 C           5.2321   -1.5350    5.2172 C.3       1     10V     0.0000
     48 C           6.7076   -1.5492    5.6559 C.3       1     10V     0.0000
     49 C          -8.6023   -4.1996    0.5647 C.3       1     10V     0.0000
     50 C           7.3994   -2.8765    5.3034 C.3       1     10V     0.0000
     51 C           8.8708   -2.8865    5.7388 C.3       1     10V     0.0000
     52 H           1.7812    0.9401    1.8212 H         1     10V     0.0000
     53 H          -4.0506    3.3781   -2.5753 H         1     10V     0.0000
     54 H          -3.2708   -3.0635   -0.0660 H         1     10V     0.0000
     55 H          -1.6142    0.3148    5.0131 H         1     10V     0.0000
     56 H          -1.0688    3.8532   -3.6642 H         1     10V     0.0000
     57 H          -0.3017   -1.9498    0.1612 H         1     10V     0.0000
     58 H           1.7344   -1.5585    1.4369 H         1     10V     0.0000
     59 H           0.4893   -2.3744    2.4112 H         1     10V     0.0000
     60 H          -0.4323    1.1479    4.0019 H         1     10V     0.0000
     61 H          -0.3661    1.3664    2.2938 H         1     10V     0.0000
     62 H          -1.1924   -0.5049   -1.4106 H         1     10V     0.0000
     63 H          -1.5638    1.0170   -3.4658 H         1     10V     0.0000
     64 H           0.2265    2.2524   -1.2491 H         1     10V     0.0000
     65 H           0.6788    0.8818   -2.3187 H         1     10V     0.0000
     66 H          -2.0761    3.3703   -1.5230 H         1     10V     0.0000
     67 H          -3.3093    0.5246   -1.6760 H         1     10V     0.0000
     68 H          -3.8181    2.8664    0.2902 H         1     10V     0.0000
     69 H          -4.4919    1.2041    0.4245 H         1     10V     0.0000
     70 H          -4.9792    2.2568   -0.9458 H         1     10V     0.0000
     71 H           2.9849   -1.7160    3.8660 H         1     10V     0.0000
     72 H           2.4145   -2.1653    5.5359 H         1     10V     0.0000
     73 H          -7.2271   -0.8618    5.3358 H         1     10V     0.0000
     74 H          -9.3329   -3.1894    2.6777 H         1     10V     0.0000
     75 H          -9.2090   -1.9681    4.7011 H         1     10V     0.0000
     76 H           4.7234   -2.3928    5.7157 H         1     10V     0.0000
     77 H           5.2029   -1.6759    4.1112 H         1     10V     0.0000
     78 H           7.2550   -0.7128    5.1590 H         1     10V     0.0000
     79 H           6.7697   -1.3870    6.7587 H         1     10V     0.0000
     80 H          -8.4329   -4.7169   -0.4065 H         1     10V     0.0000
     81 H          -8.8277   -4.9772    1.3284 H         1     10V     0.0000
     82 H          -9.4436   -3.4847    0.4245 H         1     10V     0.0000
     83 H           6.8647   -3.7215    5.7997 H         1     10V     0.0000
     84 H           7.3417   -3.0477    4.2017 H         1     10V     0.0000
     85 H           9.3586   -3.8538    5.4772 H         1     10V     0.0000
     86 H           9.4436   -2.0724    5.2385 H         1     10V     0.0000
     87 H           8.9649   -2.7466    6.8399 H         1     10V     0.0000
@<TRIPOS>BOND
     1     1    43     1
     2     2    43     1
     3     3    43     1
     4     4    18     1
     5     4    24     1
     6     5    24     1
     7     5    28     1
     8     6    19     1
     9     6    52     1
    10     7    27     1
    11     7    53     1
    12     8    30     1
    13     8    54     1
    14     9    31     1
    15     9    55     1
    16    10    29     2
    17    11    35     1
    18    11    46     1
    19    12    36     2
    20    13    37     2
    21    14    40     2
    22    15    41     1
    23    15    49     1
    24    16    46     2
    25    17    25     1
    26    17    40     1
    27    17    56     1
    28    18    20     1
    29    18    22     1
    30    18    57     1
    31    19    20     1
    32    19    21     1
    33    19    29     1
    34    20    58     1
    35    20    59     1
    36    21    23     1
    37    21    60     1
    38    21    61     1
    39    22    23     2
    40    22    30     1
    41    23    31     1
    42    24    26     1
    43    24    62     1
    44    25    26     1
    45    25    27     1
    46    25    63     1
    47    26    64     1
    48    26    65     1
    49    27    28     1
    50    27    66     1
    51    28    34     1
    52    28    67     1
    53    29    35     1
    54    30    32     2
    55    31    33     2
    56    32    33     1
    57    32    36     1
    58    33    37     1
    59    34    68     1
    60    34    69     1
    61    34    70     1
    62    35    71     1
    63    35    72     1
    64    36    38     1
    65    37    39     1
    66    38    39     2
    67    38    41     1
    68    39    42     1
    69    40    43     1
    70    41    44     2
    71    42    45     2
    72    42    73     1
    73    44    45     1
    74    44    74     1
    75    45    75     1
    76    46    47     1
    77    47    48     1
    78    47    76     1
    79    47    77     1
    80    48    50     1
    81    48    78     1
    82    48    79     1
    83    49    80     1
    84    49    81     1
    85    49    82     1
    86    50    51     1
    87    50    83     1
    88    50    84     1
    89    51    85     1
    90    51    86     1
    91    51    87     1
