@<TRIPOS>MOLECULE
1ED 
52 54 1 0 0
SMALL
USER_CHARGES


@<TRIPOS>ATOM
      1 C          -5.1600    2.7957   -0.0566 C.3       1     1ED     0.0000
      2 O          -3.9702    2.2128    0.4292 O.3       1     1ED     0.0000
      3 C          -3.1786    1.6790   -0.6040 C.3       1     1ED     0.0000
      4 C          -1.9045    1.1152    0.0034 C.3       1     1ED     0.0000
      5 O          -1.0856    0.6171   -1.0242 O.3       1     1ED     0.0000
      6 C           0.1568    0.2225   -0.5892 C.ar      1     1ED     0.0000
      7 C           0.4271   -1.0803   -0.3560 C.ar      1     1ED     0.0000
      8 C           1.7008   -1.3894   -0.0458 C.ar      1     1ED     0.0000
      9 C           2.6764   -0.4677    0.0397 C.ar      1     1ED     0.0000
     10 C           2.4180    0.8418   -0.1544 C.ar      1     1ED     0.0000
     11 C           1.1642    1.1139   -0.5505 C.ar      1     1ED     0.0000
     12 C           3.4275    1.7376   -0.0317 C.ar      1     1ED     0.0000
     13 N           4.5940    1.2657    0.1595 N.ar      1     1ED     0.0000
     14 C           4.7499    0.0239    0.3259 C.ar      1     1ED     0.0000
     15 N           3.8505   -0.8604    0.3034 N.ar      1     1ED     0.0000
     16 N           3.4254    3.0146   -0.0680 N.pl3     1     1ED     0.0000
     17 C           2.6486    4.0240   -0.0016 C.ar      1     1ED     0.0000
     18 C           3.2160    5.2172   -0.2729 C.ar      1     1ED     0.0000
     19 C           2.5108    6.3589   -0.2440 C.ar      1     1ED     0.0000
     20 C           1.2127    6.3426    0.0902 C.ar      1     1ED     0.0000
     21 C           0.6370    5.1768    0.4203 C.ar      1     1ED     0.0000
     22 C           1.3614    4.0451    0.3923 C.ar      1     1ED     0.0000
     23 C          -0.6242    5.1430    0.7977 C.1       1     1ED     0.0000
     24 C          -1.7876    5.0979    1.1356 C.1       1     1ED     0.0000
     25 O          -0.6016   -1.9869   -0.4654 O.3       1     1ED     0.0000
     26 C          -0.3552   -3.3471   -0.2233 C.3       1     1ED     0.0000
     27 C          -1.6606   -4.1108   -0.3971 C.3       1     1ED     0.0000
     28 O          -1.4223   -5.4762   -0.1563 O.3       1     1ED     0.0000
     29 C          -2.5905   -6.2552   -0.3000 C.3       1     1ED     0.0000
     30 H          -5.7781    2.0327   -0.5798 H         1     1ED     0.0000
     31 H          -5.7321    3.1856    0.8148 H         1     1ED     0.0000
     32 H          -4.9237    3.6441   -0.7366 H         1     1ED     0.0000
     33 H          -3.7428    0.8725   -1.1268 H         1     1ED     0.0000
     34 H          -2.9247    2.4867   -1.3295 H         1     1ED     0.0000
     35 H          -1.3626    1.9222    0.5498 H         1     1ED     0.0000
     36 H          -2.1388    0.2896    0.7151 H         1     1ED     0.0000
     37 H           1.9815   -2.4396    0.1351 H         1     1ED     0.0000
     38 H           0.9119    2.1106   -0.9342 H         1     1ED     0.0000
     39 H           5.7781   -0.3234    0.5258 H         1     1ED     0.0000
     40 H           4.4187    3.3580   -0.1554 H         1     1ED     0.0000
     41 H           4.2818    5.2900   -0.5542 H         1     1ED     0.0000
     42 H           2.9993    7.3162   -0.4934 H         1     1ED     0.0000
     43 H           0.6414    7.2859    0.1162 H         1     1ED     0.0000
     44 H           0.8699    3.1405    0.7768 H         1     1ED     0.0000
     45 H          -2.8344    5.0524    1.4361 H         1     1ED     0.0000
     46 H           0.3945   -3.7251   -0.9572 H         1     1ED     0.0000
     47 H           0.0128   -3.4775    0.8214 H         1     1ED     0.0000
     48 H          -2.4209   -3.7346    0.3264 H         1     1ED     0.0000
     49 H          -2.0429   -3.9793   -1.4361 H         1     1ED     0.0000
     50 H          -2.9807   -6.1781   -1.3391 H         1     1ED     0.0000
     51 H          -2.3236   -7.3162   -0.0958 H         1     1ED     0.0000
     52 H          -3.3623   -5.9327    0.4338 H         1     1ED     0.0000
@<TRIPOS>BOND
     1     1     2     1
     2     1    30     1
     3     1    31     1
     4     1    32     1
     5     2     3     1
     6     3     4     1
     7     3    33     1
     8     3    34     1
     9     4     5     1
    10     4    35     1
    11     4    36     1
    12     5     6     1
    13     6     7     2
    14     6    11     1
    15     7     8     1
    16     7    25     1
    17     8     9     2
    18     8    37     1
    19     9    10     1
    20     9    15     1
    21    10    11     2
    22    10    12     1
    23    11    38     1
    24    12    13     2
    25    12    16     1
    26    13    14     1
    27    14    15     2
    28    14    39     1
    29    16    17     1
    30    16    40     1
    31    17    18     2
    32    17    22     1
    33    18    19     1
    34    18    41     1
    35    19    20     2
    36    19    42     1
    37    20    21     1
    38    20    43     1
    39    21    22     2
    40    21    23     1
    41    22    44     1
    42    23    24     3
    43    24    45     1
    44    25    26     1
    45    26    27     1
    46    26    46     1
    47    26    47     1
    48    27    28     1
    49    27    48     1
    50    27    49     1
    51    28    29     1
    52    29    50     1
    53    29    51     1
    54    29    52     1
