@<TRIPOS>MOLECULE
4RD 
144 147 1 0 0
SMALL
USER_CHARGES


@<TRIPOS>ATOM
      1 C          -4.5922    7.6894   -2.3632 C.3       1     4RD     0.0000
      2 O          -5.0457    6.9184   -3.4544 O.3       1     4RD     0.0000
      3 C          -5.7328    5.7510   -3.0879 C.3       1     4RD     0.0000
      4 C          -4.8123    4.6944   -2.4692 C.3       1     4RD     0.0000
      5 C          -5.5519    3.3691   -2.1994 C.3       1     4RD     0.0000
      6 C          -4.6313    2.2712   -1.6222 C.3       1     4RD     0.0000
      7 C          -3.9302    2.5857   -0.2816 C.3       1     4RD     0.0000
      8 C          -1.3196    3.7126    3.1088 C.3       1     4RD     0.0000
      9 C          -2.9743    1.4427    0.1457 C.3       1     4RD     0.0000
     10 C          -3.7223    0.2424    0.7473 C.3       1     4RD     0.0000
     11 C          -2.9420   -1.0571    0.9188 C.2       1     4RD     0.0000
     12 O          -1.7587   -1.1162    0.6715 O.2       1     4RD     0.0000
     13 C          -3.7376   -2.2847    1.3722 C.3       1     4RD     0.0000
     14 C          -4.9117   -1.9971    2.3238 C.3       1     4RD     0.0000
     15 C          -2.9161   -3.4158    1.9519 C.2       1     4RD     0.0000
     16 C          -2.0397   -3.3542    2.9699 C.2       1     4RD     0.0000
     17 C          -1.6640   -2.0882    3.7015 C.3       1     4RD     0.0000
     18 C          -1.3970   -4.6205    3.5034 C.3       1     4RD     0.0000
     19 O          -2.4214   -5.4859    3.9721 O.3       1     4RD     0.0000
     20 C          -0.5074   -5.3765    2.5130 C.3       1     4RD     0.0000
     21 O           0.4271   -4.4965    1.9275 O.3       1     4RD     0.0000
     22 C           0.2010   -4.2226    0.5633 C.3       1     4RD     0.0000
     23 C           0.1763   -6.5400    3.2624 C.2       1     4RD     0.0000
     24 O          -0.5326   -7.3828    3.7670 O.2       1     4RD     0.0000
     25 C           1.7003   -6.6319    3.4032 C.3       1     4RD     0.0000
     26 C           2.2599   -5.3558    4.0554 C.3       1     4RD     0.0000
     27 C           2.3187   -7.1436    2.0830 C.3       1     4RD     0.0000
     28 C           3.8231   -6.9252    1.8144 C.3       1     4RD     0.0000
     29 C           4.7313   -7.5552    2.8789 C.3       1     4RD     0.0000
     30 C           4.0564   -5.4664    1.4954 C.2       1     4RD     0.0000
     31 C           4.7730   -4.5850    2.2120 C.2       1     4RD     0.0000
     32 C           4.7611   -3.2783    1.8964 C.2       1     4RD     0.0000
     33 C           5.3402   -2.3196    2.6414 C.2       1     4RD     0.0000
     34 C           5.1648   -1.0212    2.3403 C.2       1     4RD     0.0000
     35 C           5.5824    0.0597    3.0266 C.2       1     4RD     0.0000
     36 C           6.3847    0.0240    4.3065 C.3       1     4RD     0.0000
     37 C           5.1329    1.4410    2.5645 C.3       1     4RD     0.0000
     38 C           6.2952    2.4306    2.3807 C.3       1     4RD     0.0000
     39 C           5.9635    3.5508    1.3809 C.3       1     4RD     0.0000
     40 C           6.9717    4.6942    1.4126 C.3       1     4RD     0.0000
     41 C           6.5432    5.7711    0.4093 C.3       1     4RD     0.0000
     42 C           5.0929    6.2068    0.6905 C.3       1     4RD     0.0000
     43 C           4.6426    7.2247   -0.3730 C.3       1     4RD     0.0000
     44 C           4.1630    4.9959    0.7844 C.3       1     4RD     0.0000
     45 O           4.0664    4.3709   -0.4886 O.3       1     4RD     0.0000
     46 O           4.6864    4.0317    1.6686 O.3       1     4RD     0.0000
     47 C           2.7312    5.3166    1.2965 C.2       1     4RD     0.0000
     48 O           2.5257    6.3948    1.8153 O.2       1     4RD     0.0000
     49 C           1.7873    4.3426    1.1750 C.2       1     4RD     0.0000
     50 O           2.1176    3.2577    0.7428 O.2       1     4RD     0.0000
     51 N           0.4884    4.4944    1.6039 N.am      1     4RD     0.0000
     52 C          -0.2247    5.7618    1.7178 C.3       1     4RD     0.0000
     53 C          -0.4425    6.0778    3.2059 C.3       1     4RD     0.0000
     54 C          -0.6782    4.7822    4.0057 C.3       1     4RD     0.0000
     55 C          -0.3603    3.3448    1.9520 C.3       1     4RD     0.0000
     56 C          -1.1013    2.8004    0.7257 C.2       1     4RD     0.0000
     57 O          -0.8808    3.1631   -0.4093 O.2       1     4RD     0.0000
     58 O          -2.0621    1.9076    1.1031 O.3       1     4RD     0.0000
     59 O           4.1971    1.9935    3.4711 O.3       1     4RD     0.0000
     60 C           2.9862    1.2698    3.5327 C.3       1     4RD     0.0000
     61 C          -6.2215    2.8639   -3.4930 C.3       1     4RD     0.0000
     62 C          -7.1511    3.9265   -4.0940 C.3       1     4RD     0.0000
     63 C          -6.3714    5.2090   -4.3588 C.3       1     4RD     0.0000
     64 O          -7.2354    6.1948   -4.8726 O.3       1     4RD     0.0000
     65 C          -4.9301    2.9643    0.8256 C.3       1     4RD     0.0000
     66 H          -6.5459    6.0150   -2.3702 H         1     4RD     0.0000
     67 H          -6.3719    3.5679   -1.4660 H         1     4RD     0.0000
     68 H          -3.3085    3.4950   -0.4636 H         1     4RD     0.0000
     69 H          -2.4015    1.0868   -0.7436 H         1     4RD     0.0000
     70 H          -4.1721   -2.6596    0.4098 H         1     4RD     0.0000
     71 H          -3.1275   -4.4120    1.5254 H         1     4RD     0.0000
     72 H          -0.7816   -4.3673    4.3983 H         1     4RD     0.0000
     73 H          -1.1297   -5.8521    1.7201 H         1     4RD     0.0000
     74 H           1.8943   -7.4338    4.1637 H         1     4RD     0.0000
     75 H           4.0705   -7.4610    0.8590 H         1     4RD     0.0000
     76 H           3.5013   -5.1058    0.6097 H         1     4RD     0.0000
     77 H           5.3135   -4.9258    3.1087 H         1     4RD     0.0000
     78 H           4.1818   -2.9700    1.0075 H         1     4RD     0.0000
     79 H           5.9045   -2.6199    3.5370 H         1     4RD     0.0000
     80 H           4.5606   -0.8058    1.4410 H         1     4RD     0.0000
     81 H           4.6357    1.3600    1.5685 H         1     4RD     0.0000
     82 H           5.9515    3.0896    0.3639 H         1     4RD     0.0000
     83 H           5.1034    6.7186    1.6859 H         1     4RD     0.0000
     84 H           0.2896    2.5166    2.3277 H         1     4RD     0.0000
     85 H          -5.5903    5.0281   -5.1341 H         1     4RD     0.0000
     86 H          -3.7651    7.1725   -1.8313 H         1     4RD     0.0000
     87 H          -4.1930    8.6466   -2.7671 H         1     4RD     0.0000
     88 H          -5.4302    7.9212   -1.6697 H         1     4RD     0.0000
     89 H          -3.9475    4.5055   -3.1473 H         1     4RD     0.0000
     90 H          -4.4093    5.0817   -1.5068 H         1     4RD     0.0000
     91 H          -5.2403    1.3461   -1.4986 H         1     4RD     0.0000
     92 H          -3.8519    2.0389   -2.3867 H         1     4RD     0.0000
     93 H          -1.5773    2.8057    3.7062 H         1     4RD     0.0000
     94 H          -2.2808    4.1213    2.7165 H         1     4RD     0.0000
     95 H          -4.1046    0.5306    1.7539 H         1     4RD     0.0000
     96 H          -4.5916   -0.0128    0.0995 H         1     4RD     0.0000
     97 H          -5.6683   -1.3168    1.8730 H         1     4RD     0.0000
     98 H          -5.4538   -2.9366    2.5796 H         1     4RD     0.0000
     99 H          -4.5657   -1.5423    3.2789 H         1     4RD     0.0000
    100 H          -1.9051   -2.1874    4.7840 H         1     4RD     0.0000
    101 H          -0.5707   -1.9028    3.5963 H         1     4RD     0.0000
    102 H          -2.1909   -1.1807    3.3420 H         1     4RD     0.0000
    103 H          -2.0474   -6.3148    4.2800 H         1     4RD     0.0000
    104 H           0.9721   -3.4919    0.2313 H         1     4RD     0.0000
    105 H           0.3091   -5.1521   -0.0385 H         1     4RD     0.0000
    106 H          -0.8031   -3.7753    0.4114 H         1     4RD     0.0000
    107 H           3.2783   -5.5041    4.4731 H         1     4RD     0.0000
    108 H           2.3139   -4.4860    3.3697 H         1     4RD     0.0000
    109 H           1.6263   -5.0481    4.9187 H         1     4RD     0.0000
    110 H           2.1118   -8.2404    2.0176 H         1     4RD     0.0000
    111 H           1.7545   -6.7091    1.2251 H         1     4RD     0.0000
    112 H           4.5893   -7.1174    3.8889 H         1     4RD     0.0000
    113 H           4.5272   -8.6466    2.9721 H         1     4RD     0.0000
    114 H           5.8063   -7.4419    2.6085 H         1     4RD     0.0000
    115 H           5.8081    0.4946    5.1341 H         1     4RD     0.0000
    116 H           6.6659   -0.9932    4.6475 H         1     4RD     0.0000
    117 H           7.3367    0.5863    4.1830 H         1     4RD     0.0000
    118 H           6.5727    2.8645    3.3697 H         1     4RD     0.0000
    119 H           7.1929    1.8892    1.9959 H         1     4RD     0.0000
    120 H           7.0157    5.1326    2.4375 H         1     4RD     0.0000
    121 H           7.9919    4.3176    1.1639 H         1     4RD     0.0000
    122 H           7.2333    6.6457    0.4718 H         1     4RD     0.0000
    123 H           6.6248    5.3649   -0.6263 H         1     4RD     0.0000
    124 H           3.6076    7.5915   -0.1960 H         1     4RD     0.0000
    125 H           5.3091    8.1173   -0.3765 H         1     4RD     0.0000
    126 H           4.6690    6.7851   -1.3953 H         1     4RD     0.0000
    127 H           3.6861    3.4959   -0.3859 H         1     4RD     0.0000
    128 H           0.2377    6.5961    1.1496 H         1     4RD     0.0000
    129 H          -1.2156    5.6500    1.2164 H         1     4RD     0.0000
    130 H           0.4352    6.6192    3.6304 H         1     4RD     0.0000
    131 H          -1.3201    6.7605    3.3054 H         1     4RD     0.0000
    132 H          -1.3135    4.9889    4.8991 H         1     4RD     0.0000
    133 H           0.2950    4.3848    4.3831 H         1     4RD     0.0000
    134 H           2.2837    1.8344    4.1859 H         1     4RD     0.0000
    135 H           2.5312    1.1777    2.5224 H         1     4RD     0.0000
    136 H           3.1524    0.2659    3.9805 H         1     4RD     0.0000
    137 H          -5.4369    2.5971   -4.2400 H         1     4RD     0.0000
    138 H          -6.8078    1.9367   -3.2869 H         1     4RD     0.0000
    139 H          -7.5991    3.5494   -5.0441 H         1     4RD     0.0000
    140 H          -7.9919    4.1325   -3.3902 H         1     4RD     0.0000
    141 H          -6.7293    7.0076   -4.9649 H         1     4RD     0.0000
    142 H          -5.7230    2.1925    0.9440 H         1     4RD     0.0000
    143 H          -4.4228    3.0925    1.8080 H         1     4RD     0.0000
    144 H          -5.4382    3.9310    0.6112 H         1     4RD     0.0000
@<TRIPOS>BOND
     1     1     2     1
     2     1    86     1
     3     1    87     1
     4     1    88     1
     5     2     3     1
     6     3     4     1
     7     3    63     1
     8     3    66     1
     9     4     5     1
    10     4    89     1
    11     4    90     1
    12     5     6     1
    13     5    61     1
    14     5    67     1
    15     6     7     1
    16     6    91     1
    17     6    92     1
    18     7     9     1
    19     7    65     1
    20     7    68     1
    21     8    54     1
    22     8    55     1
    23     8    93     1
    24     8    94     1
    25     9    10     1
    26     9    58     1
    27     9    69     1
    28    10    11     1
    29    10    95     1
    30    10    96     1
    31    11    12     2
    32    11    13     1
    33    13    14     1
    34    13    15     1
    35    13    70     1
    36    14    97     1
    37    14    98     1
    38    14    99     1
    39    15    16     2
    40    15    71     1
    41    16    17     1
    42    16    18     1
    43    17   100     1
    44    17   101     1
    45    17   102     1
    46    18    19     1
    47    18    20     1
    48    18    72     1
    49    19   103     1
    50    20    21     1
    51    20    23     1
    52    20    73     1
    53    21    22     1
    54    22   104     1
    55    22   105     1
    56    22   106     1
    57    23    24     2
    58    23    25     1
    59    25    26     1
    60    25    27     1
    61    25    74     1
    62    26   107     1
    63    26   108     1
    64    26   109     1
    65    27    28     1
    66    27   110     1
    67    27   111     1
    68    28    29     1
    69    28    30     1
    70    28    75     1
    71    29   112     1
    72    29   113     1
    73    29   114     1
    74    30    31     2
    75    30    76     1
    76    31    32     1
    77    31    77     1
    78    32    33     2
    79    32    78     1
    80    33    34     1
    81    33    79     1
    82    34    35     2
    83    34    80     1
    84    35    36     1
    85    35    37     1
    86    36   115     1
    87    36   116     1
    88    36   117     1
    89    37    38     1
    90    37    59     1
    91    37    81     1
    92    38    39     1
    93    38   118     1
    94    38   119     1
    95    39    40     1
    96    39    46     1
    97    39    82     1
    98    40    41     1
    99    40   120     1
   100    40   121     1
   101    41    42     1
   102    41   122     1
   103    41   123     1
   104    42    43     1
   105    42    44     1
   106    42    83     1
   107    43   124     1
   108    43   125     1
   109    43   126     1
   110    44    45     1
   111    44    46     1
   112    44    47     1
   113    45   127     1
   114    47    48     2
   115    47    49     1
   116    49    50     2
   117    49    51     1
   118    51    52     1
   119    51    55     1
   120    52    53     1
   121    52   128     1
   122    52   129     1
   123    53    54     1
   124    53   130     1
   125    53   131     1
   126    54   132     1
   127    54   133     1
   128    55    56     1
   129    55    84     1
   130    56    57     2
   131    56    58     1
   132    59    60     1
   133    60   134     1
   134    60   135     1
   135    60   136     1
   136    61    62     1
   137    61   137     1
   138    61   138     1
   139    62    63     1
   140    62   139     1
   141    62   140     1
   142    63    64     1
   143    63    85     1
   144    64   141     1
   145    65   142     1
   146    65   143     1
   147    65   144     1
