@<TRIPOS>MOLECULE
8TD 
62 66 1 0 0
SMALL
USER_CHARGES


@<TRIPOS>ATOM
      1 C           1.6047    3.0183    0.5213 C.ar      1     8TD     0.0000
      2 C           1.3674    1.6981    0.5178 C.ar      1     8TD     0.0000
      3 C           0.1130    1.2255    0.5122 C.ar      1     8TD     0.0000
      4 C          -0.9866    2.0120    0.5135 C.ar      1     8TD     0.0000
      5 C          -0.7683    3.3501    0.5208 C.ar      1     8TD     0.0000
      6 C           0.5078    3.7945    0.5157 C.ar      1     8TD     0.0000
      7 O          -1.7229    4.3341    0.4812 O.3       1     8TD     0.0000
      8 C          -2.8906    4.0954   -0.2430 C.3       1     8TD     0.0000
      9 C          -3.8184    3.2134    0.5692 C.3       1     8TD     0.0000
     10 N          -3.3857    1.8150    0.5590 N.ar      1     8TD     0.0000
     11 C          -2.1901    1.3916    0.5303 C.ar      1     8TD     0.0000
     12 N          -2.3100    0.1240    0.5274 N.ar      1     8TD     0.0000
     13 C          -3.5257   -0.2426    0.5553 C.ar      1     8TD     0.0000
     14 C          -4.2460    0.8870    0.5763 C.ar      1     8TD     0.0000
     15 C          -3.8854   -1.5404    0.5575 C.ar      1     8TD     0.0000
     16 N          -5.0022   -2.1572    0.5878 N.ar      1     8TD     0.0000
     17 N          -4.8579   -3.3832    0.5629 N.ar      1     8TD     0.0000
     18 C          -3.6074   -3.5441    0.5222 C.ar      1     8TD     0.0000
     19 N          -2.9916   -2.4425    0.5184 N.ar      1     8TD     0.0000
     20 C          -2.9296   -4.8762    0.4806 C.3       1     8TD     0.0000
     21 C          -6.3195   -1.4849    0.6459 C.3       1     8TD     0.0000
     22 C          -6.7487   -1.0264   -0.7571 C.3       1     8TD     0.0000
     23 C          -7.4032   -2.4046    1.2412 C.3       1     8TD     0.0000
     24 C           2.8547    3.5203    0.5238 C.ar      1     8TD     0.0000
     25 C           3.2598    4.8032    0.5266 C.ar      1     8TD     0.0000
     26 N           4.5214    4.8961    0.5264 N.ar      1     8TD     0.0000
     27 N           4.9432    3.7364    0.5205 N.ar      1     8TD     0.0000
     28 C           4.0240    2.8595    0.5211 C.ar      1     8TD     0.0000
     29 C           6.3641    3.2986    0.4897 C.3       1     8TD     0.0000
     30 C           6.5862    2.4244   -0.7484 C.2       1     8TD     0.0000
     31 O           7.3571    1.5027   -0.8212 O.2       1     8TD     0.0000
     32 N           5.8282    2.7735   -1.8217 N.am      1     8TD     0.0000
     33 C           7.3105    4.5081    0.3330 C.3       1     8TD     0.0000
     34 C           6.7455    2.5440    1.7780 C.3       1     8TD     0.0000
     35 H           2.1889    0.9634    0.5198 H         1     8TD     0.0000
     36 H           0.0480    0.1238    0.5125 H         1     8TD     0.0000
     37 H           0.6312    4.8902    0.5044 H         1     8TD     0.0000
     38 H          -3.3728    5.0907   -0.3981 H         1     8TD     0.0000
     39 H          -2.6510    3.6781   -1.2468 H         1     8TD     0.0000
     40 H          -3.8959    3.5730    1.6223 H         1     8TD     0.0000
     41 H          -4.8387    3.3059    0.1234 H         1     8TD     0.0000
     42 H          -5.3204    1.0809    0.6000 H         1     8TD     0.0000
     43 H          -3.6683   -5.7093    0.4807 H         1     8TD     0.0000
     44 H          -2.3086   -4.9650   -0.4395 H         1     8TD     0.0000
     45 H          -2.2681   -5.0003    1.3677 H         1     8TD     0.0000
     46 H          -6.2497   -0.6279    1.3549 H         1     8TD     0.0000
     47 H          -7.7114   -0.4675   -0.7199 H         1     8TD     0.0000
     48 H          -5.9938   -0.3616   -1.2322 H         1     8TD     0.0000
     49 H          -6.8849   -1.9004   -1.4340 H         1     8TD     0.0000
     50 H          -8.3755   -1.8690    1.3381 H         1     8TD     0.0000
     51 H          -7.1159   -2.7594    2.2578 H         1     8TD     0.0000
     52 H          -7.5807   -3.3000    0.6033 H         1     8TD     0.0000
     53 H           2.6407    5.7093    0.5282 H         1     8TD     0.0000
     54 H           4.2295    1.7842    0.5113 H         1     8TD     0.0000
     55 H           5.9407    2.2442   -2.6742 H         1     8TD     0.0000
     56 H           5.1457    3.5159   -1.7423 H         1     8TD     0.0000
     57 H           8.3755    4.1877    0.2704 H         1     8TD     0.0000
     58 H           7.2239    5.2018    1.2001 H         1     8TD     0.0000
     59 H           7.0852    5.0907   -0.5894 H         1     8TD     0.0000
     60 H           6.5396    3.1727    2.6742 H         1     8TD     0.0000
     61 H           6.1715    1.5979    1.8956 H         1     8TD     0.0000
     62 H           7.8265    2.2784    1.8000 H         1     8TD     0.0000
@<TRIPOS>BOND
     1     1     2     2
     2     1     6     1
     3     1    24     1
     4     2     3     1
     5     2    35     1
     6     3     4     2
     7     3    36     1
     8     4     5     1
     9     4    11     1
    10     5     6     2
    11     5     7     1
    12     6    37     1
    13     7     8     1
    14     8     9     1
    15     8    38     1
    16     8    39     1
    17     9    10     1
    18     9    40     1
    19     9    41     1
    20    10    11     1
    21    10    14     1
    22    11    12     2
    23    12    13     1
    24    13    14     2
    25    13    15     1
    26    14    42     1
    27    15    16     1
    28    15    19     2
    29    16    17     1
    30    16    21     1
    31    17    18     2
    32    18    19     1
    33    18    20     1
    34    20    43     1
    35    20    44     1
    36    20    45     1
    37    21    22     1
    38    21    23     1
    39    21    46     1
    40    22    47     1
    41    22    48     1
    42    22    49     1
    43    23    50     1
    44    23    51     1
    45    23    52     1
    46    24    25     1
    47    24    28     2
    48    25    26     2
    49    25    53     1
    50    26    27     1
    51    27    28     1
    52    27    29     1
    53    28    54     1
    54    29    30     1
    55    29    33     1
    56    29    34     1
    57    30    31     2
    58    30    32     1
    59    32    55     1
    60    32    56     1
    61    33    57     1
    62    33    58     1
    63    33    59     1
    64    34    60     1
    65    34    61     1
    66    34    62     1
