@<TRIPOS>MOLECULE
9TD 
60 64 1 0 0
SMALL
USER_CHARGES


@<TRIPOS>ATOM
      1 I           1.9172   -6.6886    6.2867 I         1     9TD     0.0000
      2 F          -0.6107   -2.1449    5.0640 F         1     9TD     0.0000
      3 O          -0.8058    0.2992    3.1318 O.2       1     9TD     0.0000
      4 O           0.5777    3.5549    0.4792 O.2       1     9TD     0.0000
      5 O           1.1793   -2.8356   -1.7431 O.2       1     9TD     0.0000
      6 O          -0.2653    4.7770   -6.0151 O.2       1     9TD     0.0000
      7 N           0.3374    1.4611   -0.3542 N.am      1     9TD     0.0000
      8 N           0.2556    1.8545    1.9264 N.am      1     9TD     0.0000
      9 N           0.4239   -2.5017    0.3419 N.am      1     9TD     0.0000
     10 N           0.1552   -2.0909    2.5994 N.pl3     1     9TD     0.0000
     11 N           0.7668    4.2521   -4.0559 N.am      1     9TD     0.0000
     12 C           0.4393    0.1271   -0.1025 C.2       1     9TD     0.0000
     13 C           0.1256   -0.3420    1.1324 C.2       1     9TD     0.0000
     14 C          -0.2154    0.5631    2.1062 C.2       1     9TD     0.0000
     15 C           0.4408    2.3701    0.6631 C.2       1     9TD     0.0000
     16 C           0.2334   -1.6722    1.3977 C.2       1     9TD     0.0000
     17 C           0.8914   -0.7099   -1.0647 C.2       1     9TD     0.0000
     18 C           0.4178    2.7233    3.0824 C.3       1     9TD     0.0000
     19 C           0.8649   -2.0557   -0.8719 C.2       1     9TD     0.0000
     20 C          -0.1350    1.9146   -1.5443 C.ar      1     9TD     0.0000
     21 C           1.3386    2.1528    4.1302 C.3       1     9TD     0.0000
     22 C           1.8187    3.2590    3.2261 C.3       1     9TD     0.0000
     23 C           0.4956    2.8558   -2.2733 C.ar      1     9TD     0.0000
     24 C          -1.2897    1.4169   -2.0226 C.ar      1     9TD     0.0000
     25 C           0.5517   -3.0908    3.2854 C.ar      1     9TD     0.0000
     26 C           1.4457   -0.2514   -2.4046 C.3       1     9TD     0.0000
     27 C          -0.1012   -3.8786    0.3516 C.3       1     9TD     0.0000
     28 C           0.0163    3.3095   -3.4474 C.ar      1     9TD     0.0000
     29 C           0.1705   -3.1020    4.5812 C.ar      1     9TD     0.0000
     30 C          -1.7851    1.8501   -3.1905 C.ar      1     9TD     0.0000
     31 C           1.3710   -4.0758    2.8742 C.ar      1     9TD     0.0000
     32 C          -1.1382    2.7893   -3.8974 C.ar      1     9TD     0.0000
     33 C           0.5373   -4.0985    5.4037 C.ar      1     9TD     0.0000
     34 C           1.7439   -5.0744    3.6900 C.ar      1     9TD     0.0000
     35 C           1.3172   -5.0944    4.9602 C.ar      1     9TD     0.0000
     36 C           0.6361    4.9320   -5.2312 C.2       1     9TD     0.0000
     37 C           1.7526    5.9291   -5.4835 C.3       1     9TD     0.0000
     38 H          -0.2144   -1.4024    3.2944 H         1     9TD     0.0000
     39 H           1.5762    4.4634   -3.4894 H         1     9TD     0.0000
     40 H          -0.4950    3.2802    3.2798 H         1     9TD     0.0000
     41 H           1.1180    2.4048    5.1662 H         1     9TD     0.0000
     42 H           1.7746    1.1662    3.9806 H         1     9TD     0.0000
     43 H           2.5678    2.9998    2.4797 H         1     9TD     0.0000
     44 H           1.9218    4.2546    3.6550 H         1     9TD     0.0000
     45 H           1.4556    3.2596   -1.9072 H         1     9TD     0.0000
     46 H          -1.8494    0.6513   -1.4591 H         1     9TD     0.0000
     47 H           0.6698   -0.2937   -3.2021 H         1     9TD     0.0000
     48 H           1.9000    0.7597   -2.3636 H         1     9TD     0.0000
     49 H           2.3105   -0.8692   -2.7346 H         1     9TD     0.0000
     50 H          -0.8656   -3.9838   -0.4531 H         1     9TD     0.0000
     51 H           0.6842   -4.6405    0.1480 H         1     9TD     0.0000
     52 H          -0.6624   -4.1407    1.2738 H         1     9TD     0.0000
     53 H          -2.7340    1.4327   -3.5687 H         1     9TD     0.0000
     54 H           1.8168   -4.0683    1.8700 H         1     9TD     0.0000
     55 H          -1.5975    3.1036   -4.8447 H         1     9TD     0.0000
     56 H           0.1899   -4.0886    6.4498 H         1     9TD     0.0000
     57 H           2.4231   -5.8586    3.3161 H         1     9TD     0.0000
     58 H           1.7796    6.6886   -4.6694 H         1     9TD     0.0000
     59 H           2.7340    5.4042   -5.5212 H         1     9TD     0.0000
     60 H           1.6088    6.4632   -6.4498 H         1     9TD     0.0000
@<TRIPOS>BOND
     1     1    35     1
     2     2    29     1
     3     3    14     2
     4     4    15     2
     5     5    19     2
     6     6    36     2
     7     7    12     1
     8     7    15     1
     9     7    20     1
    10     8    14     1
    11     8    15     1
    12     8    18     1
    13     9    16     1
    14     9    19     1
    15     9    27     1
    16    10    16     1
    17    10    25     1
    18    10    38     1
    19    11    28     1
    20    11    36     1
    21    11    39     1
    22    12    13     1
    23    12    17     2
    24    13    14     1
    25    13    16     2
    26    17    19     1
    27    17    26     1
    28    18    21     1
    29    18    22     1
    30    18    40     1
    31    20    23     2
    32    20    24     1
    33    21    22     1
    34    21    41     1
    35    21    42     1
    36    22    43     1
    37    22    44     1
    38    23    28     1
    39    23    45     1
    40    24    30     2
    41    24    46     1
    42    25    29     1
    43    25    31     2
    44    26    47     1
    45    26    48     1
    46    26    49     1
    47    27    50     1
    48    27    51     1
    49    27    52     1
    50    28    32     2
    51    29    33     2
    52    30    32     1
    53    30    53     1
    54    31    34     1
    55    31    54     1
    56    32    55     1
    57    33    35     1
    58    33    56     1
    59    34    35     2
    60    34    57     1
    61    36    37     1
    62    37    58     1
    63    37    59     1
    64    37    60     1
