@<TRIPOS>MOLECULE
CRZ 
52 55 1 0 0
SMALL
USER_CHARGES


@<TRIPOS>ATOM
      1 C          -1.7092   -2.7423   -2.3366 C.ar      1     CRZ     0.0000
      2 C          -1.1187   -1.9337   -1.4394 C.ar      1     CRZ     0.0000
      3 C          -1.9466   -1.4373   -0.5038 C.ar      1     CRZ     0.0000
      4 C          -3.2731   -1.6710   -0.5243 C.ar      1     CRZ     0.0000
      5 C          -3.7096   -2.5352   -1.4654 C.ar      1     CRZ     0.0000
      6 N          -2.9389   -3.0359   -2.3371 N.ar      1     CRZ     0.0000
      7 N          -4.9427   -2.8333   -1.4603 N.3       1     CRZ     0.0000
      8 O          -4.0903   -1.1785    0.4642 O.3       1     CRZ     0.0000
      9 C          -4.4875    0.1706    0.3145 C.3       1     CRZ     0.0000
     10 C          -3.3032    1.1423    0.4638 C.ar      1     CRZ     0.0000
     11 C           0.1946   -1.6417   -1.4631 C.ar      1     CRZ     0.0000
     12 C          -2.8646    1.4553    1.7080 C.ar      1     CRZ     0.0000
     13 C          -1.8261    2.2825    1.9097 C.ar      1     CRZ     0.0000
     14 C          -1.1824    2.8225    0.8693 C.ar      1     CRZ     0.0000
     15 C          -1.5773    2.5232   -0.3742 C.ar      1     CRZ     0.0000
     16 C          -2.6245    1.6948   -0.5714 C.ar      1     CRZ     0.0000
     17 Cl         -2.9924    1.3595   -2.2308 Cl        1     CRZ     0.0000
     18 Cl         -3.5786    0.8096    3.1532 Cl        1     CRZ     0.0000
     19 F          -0.9132    3.0636   -1.3874 F         1     CRZ     0.0000
     20 C           1.1481   -2.0728   -2.3081 C.ar      1     CRZ     0.0000
     21 N           2.2787   -1.5776   -2.0278 N.ar      1     CRZ     0.0000
     22 N           2.0900   -0.8481   -1.0502 N.ar      1     CRZ     0.0000
     23 C           0.8854   -0.8283   -0.6475 C.ar      1     CRZ     0.0000
     24 C           3.0948   -0.0282   -0.3339 C.3       1     CRZ     0.0000
     25 C           3.5753   -0.7375    0.9419 C.3       1     CRZ     0.0000
     26 C           4.6284    0.1081    1.6717 C.3       1     CRZ     0.0000
     27 N           5.7507    0.4382    0.7953 N.3       1     CRZ     0.0000
     28 C           5.3387    1.1323   -0.4236 C.3       1     CRZ     0.0000
     29 C           4.3113    0.3081   -1.2121 C.3       1     CRZ     0.0000
     30 C          -5.4887    0.3338   -0.8336 C.3       1     CRZ     0.0000
     31 H          -1.1390   -3.2234   -3.1478 H         1     CRZ     0.0000
     32 H          -1.5572   -0.8113    0.3128 H         1     CRZ     0.0000
     33 H          -5.5821   -2.4207   -0.7378 H         1     CRZ     0.0000
     34 H          -5.3282   -3.4979   -2.1752 H         1     CRZ     0.0000
     35 H          -5.1601    0.3682    1.1878 H         1     CRZ     0.0000
     36 H          -1.4760    2.5291    2.9268 H         1     CRZ     0.0000
     37 H          -0.3268    3.4979    1.0343 H         1     CRZ     0.0000
     38 H           1.0363   -2.7639   -3.1532 H         1     CRZ     0.0000
     39 H           0.5567   -0.2283    0.2080 H         1     CRZ     0.0000
     40 H           2.6129    0.9410   -0.0506 H         1     CRZ     0.0000
     41 H           2.7147   -0.9349    1.6242 H         1     CRZ     0.0000
     42 H           4.0158   -1.7261    0.6698 H         1     CRZ     0.0000
     43 H           5.0137   -0.4456    2.5605 H         1     CRZ     0.0000
     44 H           4.1662    1.0502    2.0497 H         1     CRZ     0.0000
     45 H           6.4267    1.0464    1.3213 H         1     CRZ     0.0000
     46 H           6.2395    1.3240   -1.0533 H         1     CRZ     0.0000
     47 H           4.9099    2.1267   -0.1566 H         1     CRZ     0.0000
     48 H           4.7984   -0.6337   -1.5604 H         1     CRZ     0.0000
     49 H           3.9848    0.8716   -2.1184 H         1     CRZ     0.0000
     50 H          -5.7811    1.4011   -0.9652 H         1     CRZ     0.0000
     51 H          -6.4267   -0.2329   -0.6266 H         1     CRZ     0.0000
     52 H          -5.1338   -0.0641   -1.8066 H         1     CRZ     0.0000
@<TRIPOS>BOND
     1     1     2     1
     2     1     6     2
     3     1    31     1
     4     2     3     2
     5     2    11     1
     6     3     4     1
     7     3    32     1
     8     4     5     2
     9     4     8     1
    10     5     6     1
    11     5     7     1
    12     7    33     1
    13     7    34     1
    14     8     9     1
    15     9    10     1
    16     9    30     1
    17     9    35     1
    18    10    12     1
    19    10    16     2
    20    11    20     1
    21    11    23     2
    22    12    13     2
    23    12    18     1
    24    13    14     1
    25    13    36     1
    26    14    15     2
    27    14    37     1
    28    15    16     1
    29    15    19     1
    30    16    17     1
    31    20    21     2
    32    20    38     1
    33    21    22     1
    34    22    23     1
    35    22    24     1
    36    23    39     1
    37    24    25     1
    38    24    29     1
    39    24    40     1
    40    25    26     1
    41    25    41     1
    42    25    42     1
    43    26    27     1
    44    26    43     1
    45    26    44     1
    46    27    28     1
    47    27    45     1
    48    28    29     1
    49    28    46     1
    50    28    47     1
    51    29    48     1
    52    29    49     1
    53    30    50     1
    54    30    51     1
    55    30    52     1
