@<TRIPOS>MOLECULE
DYE 
95 99 1 0 0
SMALL
USER_CHARGES


@<TRIPOS>ATOM
      1 C          -3.9992   -0.6934    1.1981 C.3       1     DYE     0.0000
      2 C          -3.8063    0.6852    0.5239 C.3       1     DYE     0.0000
      3 C          -2.7708    1.6256    1.1621 C.3       1     DYE     0.0000
      4 C          -3.2637    2.4773    2.3425 C.3       1     DYE     0.0000
      5 C          -6.2541   -2.6100   -0.6765 C.ar      1     DYE     0.0000
      6 C          -5.9084   -1.6261    0.1685 C.ar      1     DYE     0.0000
      7 C          -7.5369   -2.8992   -0.9362 C.ar      1     DYE     0.0000
      8 C          -6.8753   -0.9168    0.7745 C.ar      1     DYE     0.0000
      9 C          -8.4967   -2.1800   -0.3346 C.ar      1     DYE     0.0000
     10 C          -8.1642   -1.1960    0.5166 C.ar      1     DYE     0.0000
     11 C          -5.0418   -3.3238   -1.2224 C.3       1     DYE     0.0000
     12 C          -4.0123   -2.4243   -0.5270 C.2       1     DYE     0.0000
     13 N          -4.6333   -1.5873    0.2155 N.3       1     DYE     0.0000
     14 C          -4.9868   -3.2207   -2.7538 C.3       1     DYE     0.0000
     15 C          -4.9966   -4.7771   -0.7284 C.3       1     DYE     0.0000
     16 C          -2.7077   -2.6564   -0.7835 C.2       1     DYE     0.0000
     17 C          -1.5896   -1.9750   -0.4693 C.2       1     DYE     0.0000
     18 C          -0.3068   -2.3678   -0.6756 C.2       1     DYE     0.0000
     19 C           2.0327   -2.0719   -0.2602 C.2       1     DYE     0.0000
     20 C           0.7596   -1.5994   -0.3263 C.2       1     DYE     0.0000
     21 C           3.0668   -1.3219    0.1919 C.2       1     DYE     0.0000
     22 C           4.2772   -1.7723    0.5699 C.2       1     DYE     0.0000
     23 C           5.3160   -1.0776    1.0749 C.2       1     DYE     0.0000
     24 N           5.5473    0.2179    1.1232 N.pl3     1     DYE     1.0000
     25 C           6.5573    0.4674    1.9210 C.ar      1     DYE     0.0000
     26 C           7.1247   -0.6621    2.3597 C.ar      1     DYE     0.0000
     27 C           6.4270   -1.8523    1.7821 C.3       1     DYE     0.0000
     28 C           8.1862   -0.6644    3.1778 C.ar      1     DYE     0.0000
     29 C           8.6880    0.5115    3.5844 C.ar      1     DYE     0.0000
     30 C           7.0633    1.6376    2.3433 C.ar      1     DYE     0.0000
     31 C           8.1227    1.6565    3.1696 C.ar      1     DYE     0.0000
     32 C           4.8487    1.2850    0.2767 C.3       1     DYE     0.0000
     33 C           5.7927    2.3078   -0.3949 C.3       1     DYE     0.0000
     34 C           5.4261    2.6794   -1.8457 C.3       1     DYE     0.0000
     35 C           6.3210    3.8214   -2.3655 C.3       1     DYE     0.0000
     36 C           7.3277   -2.5965    0.7863 C.3       1     DYE     0.0000
     37 C           5.9122   -2.7742    2.8996 C.3       1     DYE     0.0000
     38 C          -0.0709   -3.7552   -1.2509 C.3       1     DYE     0.0000
     39 C           1.3576   -3.9536   -1.7463 C.3       1     DYE     0.0000
     40 C           2.3043   -3.5174   -0.6347 C.3       1     DYE     0.0000
     41 Cl          0.4747    0.0465    0.1844 Cl        1     DYE     0.0000
     42 S          -4.0911    1.6134    3.7479 S.2       1     DYE     0.0000
     43 O          -3.5907    2.2989    4.9292 O.2       1     DYE     0.0000
     44 O          -5.4955    1.6065    3.3686 O.2       1     DYE     0.0000
     45 O          -3.2528    0.2440    3.3131 O.2       1     DYE    -1.0000
     46 S           6.2500    4.1123   -4.2016 S.2       1     DYE     0.0000
     47 O           7.0005    5.3630   -4.1066 O.2       1     DYE     0.0000
     48 O           4.7914    4.1194   -4.2465 O.2       1     DYE     0.0000
     49 O           7.0412    2.8511   -4.9292 O.2       1     DYE    -1.0000
     50 H          -3.0625   -1.1667    1.5599 H         1     DYE     0.0000
     51 H          -4.6868   -0.6666    2.0684 H         1     DYE     0.0000
     52 H          -3.4641    0.4997   -0.5243 H         1     DYE     0.0000
     53 H          -4.7826    1.2139    0.4256 H         1     DYE     0.0000
     54 H          -2.4143    2.3393    0.3776 H         1     DYE     0.0000
     55 H          -1.8659    1.0475    1.4559 H         1     DYE     0.0000
     56 H          -2.3960    3.0447    2.7573 H         1     DYE     0.0000
     57 H          -3.9860    3.2409    1.9667 H         1     DYE     0.0000
     58 H          -7.7996   -3.7174   -1.6249 H         1     DYE     0.0000
     59 H          -6.6566   -0.0948    1.4720 H         1     DYE     0.0000
     60 H          -9.5582   -2.4020   -0.5349 H         1     DYE     0.0000
     61 H          -8.9598   -0.6103    1.0080 H         1     DYE     0.0000
     62 H          -5.0307   -2.1593   -3.0889 H         1     DYE     0.0000
     63 H          -4.0552   -3.6679   -3.1661 H         1     DYE     0.0000
     64 H          -5.8391   -3.7605   -3.2244 H         1     DYE     0.0000
     65 H          -5.0407   -4.8281    0.3835 H         1     DYE     0.0000
     66 H          -5.8546   -5.3630   -1.1287 H         1     DYE     0.0000
     67 H          -4.0689   -5.2977   -1.0545 H         1     DYE     0.0000
     68 H          -2.5641   -3.5745   -1.3702 H         1     DYE     0.0000
     69 H          -1.7640   -1.0115    0.0152 H         1     DYE     0.0000
     70 H           2.9059   -0.2590    0.3952 H         1     DYE     0.0000
     71 H           4.4227   -2.8628    0.5734 H         1     DYE     0.0000
     72 H           8.6406   -1.6113    3.5085 H         1     DYE     0.0000
     73 H           9.5582    0.5362    4.2613 H         1     DYE     0.0000
     74 H           6.6168    2.5989    2.0558 H         1     DYE     0.0000
     75 H           8.5287    2.6212    3.5185 H         1     DYE     0.0000
     76 H           4.3710    0.7836   -0.5958 H         1     DYE     0.0000
     77 H           4.0569    1.7958    0.8716 H         1     DYE     0.0000
     78 H           6.8298    1.8945   -0.4215 H         1     DYE     0.0000
     79 H           5.8072    3.2510    0.2003 H         1     DYE     0.0000
     80 H           5.5446    1.7794   -2.4954 H         1     DYE     0.0000
     81 H           4.3548    2.9900   -1.8854 H         1     DYE     0.0000
     82 H           7.3873    3.5920   -2.1280 H         1     DYE     0.0000
     83 H           6.0526    4.7644   -1.8317 H         1     DYE     0.0000
     84 H           7.7074   -1.9130   -0.0073 H         1     DYE     0.0000
     85 H           8.2093   -3.0433    1.2990 H         1     DYE     0.0000
     86 H           6.7807   -3.4259    0.2844 H         1     DYE     0.0000
     87 H           5.2509   -2.2222    3.6060 H         1     DYE     0.0000
     88 H           5.3365   -3.6384    2.5008 H         1     DYE     0.0000
     89 H           6.7533   -3.2035    3.4891 H         1     DYE     0.0000
     90 H          -0.3129   -4.5129   -0.4679 H         1     DYE     0.0000
     91 H          -0.7100   -3.9448   -2.1454 H         1     DYE     0.0000
     92 H           1.5335   -5.0198   -2.0266 H         1     DYE     0.0000
     93 H           1.5382   -3.3330   -2.6578 H         1     DYE     0.0000
     94 H           2.1864   -4.1639    0.2665 H         1     DYE     0.0000
     95 H           3.3307   -3.6619   -1.0471 H         1     DYE     0.0000
@<TRIPOS>BOND
     1     1     2     1
     2     1    13     1
     3     1    50     1
     4     1    51     1
     5     2     3     1
     6     2    52     1
     7     2    53     1
     8     3     4     1
     9     3    54     1
    10     3    55     1
    11     4    42     1
    12     4    56     1
    13     4    57     1
    14     5     6     1
    15     5     7     2
    16     5    11     1
    17     6     8     2
    18     6    13     1
    19     7     9     1
    20     7    58     1
    21     8    10     1
    22     8    59     1
    23     9    10     2
    24     9    60     1
    25    10    61     1
    26    11    12     1
    27    11    14     1
    28    11    15     1
    29    12    13     1
    30    12    16     2
    31    14    62     1
    32    14    63     1
    33    14    64     1
    34    15    65     1
    35    15    66     1
    36    15    67     1
    37    16    17     1
    38    16    68     1
    39    17    18     2
    40    17    69     1
    41    18    20     1
    42    18    38     1
    43    19    20     2
    44    19    21     1
    45    19    40     1
    46    20    41     1
    47    21    22     2
    48    21    70     1
    49    22    23     1
    50    22    71     1
    51    23    24     2
    52    23    27     1
    53    24    25     1
    54    24    32     1
    55    25    26     2
    56    25    30     1
    57    26    27     1
    58    26    28     1
    59    27    36     1
    60    27    37     1
    61    28    29     2
    62    28    72     1
    63    29    31     1
    64    29    73     1
    65    30    31     2
    66    30    74     1
    67    31    75     1
    68    32    33     1
    69    32    76     1
    70    32    77     1
    71    33    34     1
    72    33    78     1
    73    33    79     1
    74    34    35     1
    75    34    80     1
    76    34    81     1
    77    35    46     1
    78    35    82     1
    79    35    83     1
    80    36    84     1
    81    36    85     1
    82    36    86     1
    83    37    87     1
    84    37    88     1
    85    37    89     1
    86    38    39     1
    87    38    90     1
    88    38    91     1
    89    39    40     1
    90    39    92     1
    91    39    93     1
    92    40    94     1
    93    40    95     1
    94    42    43     2
    95    42    44     2
    96    42    45     1
    97    46    47     2
    98    46    48     2
    99    46    49     1
