@<TRIPOS>MOLECULE
SON 
48 50 1 0 0
SMALL
USER_CHARGES


@<TRIPOS>ATOM
      1 C           5.4523    0.8416    0.2981 C.ar      1     SON     0.0000
      2 C           5.5348    0.2495    1.5018 C.ar      1     SON     0.0000
      3 C           5.8195    0.0801   -0.7503 C.ar      1     SON     0.0000
      4 C           5.9557   -1.0207    1.5723 C.ar      1     SON     0.0000
      5 C           6.2334   -1.1939   -0.5946 C.ar      1     SON     0.0000
      6 N           6.2876   -1.7074    0.5648 N.ar      1     SON     0.0000
      7 O           5.0317    2.1358    0.1493 O.3       1     SON     0.0000
      8 C           1.5092    2.0977   -0.6452 C.ar      1     SON     0.0000
      9 C           0.9514    2.6027    0.4681 C.ar      1     SON     0.0000
     10 C           2.8400    1.9487   -0.7446 C.ar      1     SON     0.0000
     11 C           1.7801    2.9522    1.4688 C.ar      1     SON     0.0000
     12 C           3.6750    2.2888    0.2543 C.ar      1     SON     0.0000
     13 C           3.1084    2.7987    1.3626 C.ar      1     SON     0.0000
     14 C           6.5957   -1.9350   -1.6834 C.2       1     SON     0.0000
     15 N           6.9921   -3.2054   -1.3698 N.am      1     SON     0.0000
     16 C           7.4214   -4.1680   -2.3837 C.3       1     SON     0.0000
     17 O           6.5834   -1.5486   -2.8288 O.2       1     SON     0.0000
     18 N          -0.3617    2.8076    0.7026 N.am      1     SON     0.0000
     19 C          -1.4934    2.5768   -0.0300 C.2       1     SON     0.0000
     20 N          -2.6424    2.9803    0.5936 N.am      1     SON     0.0000
     21 O          -1.4804    2.0688   -1.1169 O.2       1     SON     0.0000
     22 C          -3.9474    2.9427    0.2481 C.ar      1     SON     0.0000
     23 C          -4.4654    2.4514   -0.8893 C.ar      1     SON     0.0000
     24 C          -4.8029    3.4561    1.1529 C.ar      1     SON     0.0000
     25 C          -5.7897    2.4795   -1.1003 C.ar      1     SON     0.0000
     26 C          -6.1379    3.5004    0.9733 C.ar      1     SON     0.0000
     27 C          -6.6204    2.9974   -0.1819 C.ar      1     SON     0.0000
     28 Cl         -8.3144    2.9935   -0.5353 Cl        1     SON     0.0000
     29 C          -7.0348    4.0989    2.0470 C.3       1     SON     0.0000
     30 F          -7.7213    5.1241    1.5655 F         1     SON     0.0000
     31 F          -6.3699    4.5388    3.1040 F         1     SON     0.0000
     32 F          -7.9063    3.2014    2.4821 F         1     SON     0.0000
     33 H           5.2604    0.7973    2.4178 H         1     SON     0.0000
     34 H           5.7654    0.5480   -1.7472 H         1     SON     0.0000
     35 H           6.0276   -1.5239    2.5515 H         1     SON     0.0000
     36 H           0.9098    1.7922   -1.5141 H         1     SON     0.0000
     37 H           3.2627    1.5342   -1.6759 H         1     SON     0.0000
     38 H           1.3741    3.3750    2.4043 H         1     SON     0.0000
     39 H           3.7528    3.0982    2.2067 H         1     SON     0.0000
     40 H           6.9859   -3.4874   -0.3902 H         1     SON     0.0000
     41 H           6.5972   -4.3726   -3.1040 H         1     SON     0.0000
     42 H           8.3144   -3.7897   -2.9307 H         1     SON     0.0000
     43 H           7.6955   -5.1241   -1.8840 H         1     SON     0.0000
     44 H          -0.4867    3.2122    1.6198 H         1     SON     0.0000
     45 H          -2.5396    3.4020    1.5058 H         1     SON     0.0000
     46 H          -3.8438    2.0129   -1.6820 H         1     SON     0.0000
     47 H          -4.3796    3.8600    2.0878 H         1     SON     0.0000
     48 H          -6.1850    2.0677   -2.0452 H         1     SON     0.0000
@<TRIPOS>BOND
     1     1     2     1
     2     1     3     2
     3     1     7     1
     4     2     4     2
     5     2    33     1
     6     3     5     1
     7     3    34     1
     8     4     6     1
     9     4    35     1
    10     5     6     2
    11     5    14     1
    12     7    12     1
    13     8     9     1
    14     8    10     2
    15     8    36     1
    16     9    11     2
    17     9    18     1
    18    10    12     1
    19    10    37     1
    20    11    13     1
    21    11    38     1
    22    12    13     2
    23    13    39     1
    24    14    15     1
    25    14    17     2
    26    15    16     1
    27    15    40     1
    28    16    41     1
    29    16    42     1
    30    16    43     1
    31    18    19     1
    32    18    44     1
    33    19    20     1
    34    19    21     2
    35    20    22     1
    36    20    45     1
    37    22    23     1
    38    22    24     2
    39    23    25     2
    40    23    46     1
    41    24    26     1
    42    24    47     1
    43    25    27     1
    44    25    48     1
    45    26    27     2
    46    26    29     1
    47    27    28     1
    48    29    30     1
    49    29    31     1
    50    29    32     1
