@<TRIPOS>MOLECULE
SNF 
48 50 1 0 0
SMALL
USER_CHARGES


@<TRIPOS>ATOM
      1 C           5.4552    0.9294    0.4018 C.ar      1     SNF     0.0000
      2 C           5.5293    0.3329    1.6039 C.ar      1     SNF     0.0000
      3 C           5.8243    0.1701   -0.6475 C.ar      1     SNF     0.0000
      4 C           5.9444   -0.9394    1.6719 C.ar      1     SNF     0.0000
      5 C           6.2320   -1.1062   -0.4942 C.ar      1     SNF     0.0000
      6 N           6.2781   -1.6241    0.6636 N.ar      1     SNF     0.0000
      7 O           5.0402    2.2258    0.2553 O.3       1     SNF     0.0000
      8 C           1.5193    2.1940   -0.5464 C.ar      1     SNF     0.0000
      9 C           0.9602    2.7025    0.5647 C.ar      1     SNF     0.0000
     10 C           2.8499    2.0424   -0.6429 C.ar      1     SNF     0.0000
     11 C           1.7877    3.0534    1.5658 C.ar      1     SNF     0.0000
     12 C           3.6836    2.3830    0.3568 C.ar      1     SNF     0.0000
     13 C           3.1159    2.8973    1.4626 C.ar      1     SNF     0.0000
     14 C           6.5960   -1.8453   -1.5838 C.2       1     SNF     0.0000
     15 N           6.9826   -3.1194   -1.2731 N.am      1     SNF     0.0000
     16 C           7.4099   -4.0810   -2.2888 C.3       1     SNF     0.0000
     17 O           6.5924   -1.4544   -2.7277 O.2       1     SNF     0.0000
     18 N          -0.3532    2.9089    0.7968 N.am      1     SNF     0.0000
     19 C          -1.4842    2.6765    0.0635 C.2       1     SNF     0.0000
     20 N          -2.6336    3.0768    0.6882 N.am      1     SNF     0.0000
     21 O          -1.4695    2.1694   -1.0239 O.2       1     SNF     0.0000
     22 C          -3.9386    3.0373    0.3450 C.ar      1     SNF     0.0000
     23 C          -4.4587    2.5476   -0.7929 C.ar      1     SNF     0.0000
     24 C          -4.7915    3.5473    1.2535 C.ar      1     SNF     0.0000
     25 C          -5.7836    2.5718   -1.0051 C.ar      1     SNF     0.0000
     26 C          -6.1238    3.5841    1.0658 C.ar      1     SNF     0.0000
     27 C          -6.6141    3.0858   -0.0845 C.ar      1     SNF     0.0000
     28 Cl         -8.3119    3.0889   -0.4152 Cl        1     SNF     0.0000
     29 C          -7.0239    4.1732    2.1314 C.3       1     SNF     0.0000
     30 H          -7.5921    5.0429    1.7298 H         1     SNF     0.0000
     31 H          -6.4604    4.5413    3.0175 H         1     SNF     0.0000
     32 H          -7.7440    3.4099    2.5044 H         1     SNF     0.0000
     33 H           5.2527    0.8786    2.5204 H         1     SNF     0.0000
     34 H           5.7768    0.6417   -1.6430 H         1     SNF     0.0000
     35 H           6.0094   -1.4465    2.6497 H         1     SNF     0.0000
     36 H           0.9210    1.8868   -1.4155 H         1     SNF     0.0000
     37 H           3.2736    1.6242   -1.5722 H         1     SNF     0.0000
     38 H           1.3807    3.4791    2.4996 H         1     SNF     0.0000
     39 H           3.7593    3.1973    2.3073 H         1     SNF     0.0000
     40 H           6.9700   -3.4050   -0.2946 H         1     SNF     0.0000
     41 H           6.5901   -4.2725   -3.0175 H         1     SNF     0.0000
     42 H           8.3119   -3.7095   -2.8257 H         1     SNF     0.0000
     43 H           7.6691   -5.0429   -1.7923 H         1     SNF     0.0000
     44 H          -0.4795    3.3152    1.7130 H         1     SNF     0.0000
     45 H          -2.5315    3.4972    1.6011 H         1     SNF     0.0000
     46 H          -3.8361    2.1126   -1.5868 H         1     SNF     0.0000
     47 H          -4.3842    3.9544    2.1950 H         1     SNF     0.0000
     48 H          -6.1800    2.1616   -1.9500 H         1     SNF     0.0000
@<TRIPOS>BOND
     1     1     2     1
     2     1     3     2
     3     1     7     1
     4     2     4     2
     5     2    33     1
     6     3     5     1
     7     3    34     1
     8     4     6     1
     9     4    35     1
    10     5     6     2
    11     5    14     1
    12     7    12     1
    13     8     9     1
    14     8    10     2
    15     8    36     1
    16     9    11     2
    17     9    18     1
    18    10    12     1
    19    10    37     1
    20    11    13     1
    21    11    38     1
    22    12    13     2
    23    13    39     1
    24    14    15     1
    25    14    17     2
    26    15    16     1
    27    15    40     1
    28    16    41     1
    29    16    42     1
    30    16    43     1
    31    18    19     1
    32    18    44     1
    33    19    20     1
    34    19    21     2
    35    20    22     1
    36    20    45     1
    37    22    23     1
    38    22    24     2
    39    23    25     2
    40    23    46     1
    41    24    26     1
    42    24    47     1
    43    25    27     1
    44    25    48     1
    45    26    27     2
    46    26    29     1
    47    27    28     1
    48    29    30     1
    49    29    31     1
    50    29    32     1
