@<TRIPOS>MOLECULE
DYE
   95    99     1     0     0
SMALL
bcc


@<TRIPOS>ATOM
      1 C          -3.9990   -0.6930    1.1980 c3        1 DYE     -0.004700
      2 C1         -3.8060    0.6850    0.5240 c3        1 DYE     -0.098900
      3 C2         -2.7710    1.6260    1.1620 c3        1 DYE     -0.030400
      4 C3         -3.2640    2.4770    2.3420 c3        1 DYE     -0.305100
      5 C4         -6.2540   -2.6100   -0.6760 ca        1 DYE     -0.116800
      6 C5         -5.9080   -1.6260    0.1690 ca        1 DYE     -0.042200
      7 C6         -7.5370   -2.8990   -0.9360 ca        1 DYE     -0.096000
      8 C7         -6.8750   -0.9170    0.7740 ca        1 DYE     -0.116500
      9 C8         -8.4970   -2.1800   -0.3350 ca        1 DYE     -0.144500
     10 C9         -8.1640   -1.1960    0.5170 ca        1 DYE     -0.114000
     11 C10        -5.0420   -3.3240   -1.2220 c3        1 DYE     -0.057000
     12 C11        -4.0120   -2.4240   -0.5270 ce        1 DYE      0.316600
     13 N          -4.6330   -1.5870    0.2150 nh        1 DYE     -0.101700
     14 C12        -4.9870   -3.2210   -2.7540 c3        1 DYE     -0.089100
     15 C13        -4.9970   -4.7770   -0.7280 c3        1 DYE     -0.089100
     16 C14        -2.7080   -2.6560   -0.7830 ce        1 DYE     -0.300600
     17 C15        -1.5900   -1.9750   -0.4690 cf        1 DYE     -0.047000
     18 C16        -0.3070   -2.3680   -0.6760 cf        1 DYE     -0.082700
     19 C17         2.0330   -2.0720   -0.2600 ce        1 DYE     -0.082700
     20 C18         0.7600   -1.5990   -0.3260 ce        1 DYE      0.051400
     21 C19         3.0670   -1.3220    0.1920 cf        1 DYE     -0.047000
     22 C20         4.2770   -1.7720    0.5700 cf        1 DYE     -0.214000
     23 C21         5.3160   -1.0780    1.0750 c2        1 DYE      0.177800
     24 N1          5.5470    0.2180    1.1230 nh        1 DYE     -0.433300
     25 C22         6.5570    0.4670    1.9210 ca        1 DYE      0.084600
     26 C23         7.1250   -0.6620    2.3600 ca        1 DYE     -0.116800
     27 C24         6.4270   -1.8520    1.7820 c3        1 DYE      0.022500
     28 C25         8.1860   -0.6640    3.1780 ca        1 DYE     -0.096000
     29 C26         8.6880    0.5110    3.5840 ca        1 DYE     -0.144500
     30 C27         7.0630    1.6380    2.3430 ca        1 DYE     -0.116500
     31 C28         8.1230    1.6570    3.1700 ca        1 DYE     -0.114000
     32 C29         4.8490    1.2850    0.2770 c3        1 DYE      0.172800
     33 C30         5.7930    2.3080   -0.3950 c3        1 DYE     -0.098900
     34 C31         5.4260    2.6790   -1.8460 c3        1 DYE     -0.030400
     35 C32         6.3210    3.8210   -2.3650 c3        1 DYE     -0.305100
     36 C33         7.3280   -2.5960    0.7860 c3        1 DYE     -0.089100
     37 C34         5.9120   -2.7740    2.9000 c3        1 DYE     -0.089100
     38 C35        -0.0710   -3.7550   -1.2510 c3        1 DYE     -0.053200
     39 C36         1.3580   -3.9540   -1.7460 c3        1 DYE     -0.075400
     40 C37         2.3040   -3.5170   -0.6350 c3        1 DYE     -0.053200
     41 Cl          0.4750    0.0460    0.1840 cl        1 DYE     -0.115400
     42 S          -4.0910    1.6130    3.7480 s6        1 DYE      1.432800
     43 O          -3.5910    2.2990    4.9290 o         1 DYE     -0.754700
     44 O1         -5.4950    1.6070    3.3690 o         1 DYE     -0.754700
     45 O2         -3.2530    0.2440    3.3130 o         1 DYE     -0.754700
     46 S1          6.2500    4.1120   -4.2020 s6        1 DYE      1.432800
     47 O3          7.0000    5.3630   -4.1070 o         1 DYE     -0.754700
     48 O4          4.7910    4.1190   -4.2470 o         1 DYE     -0.754700
     49 O5          7.0410    2.8510   -4.9290 o         1 DYE     -0.754700
     50 H          -3.0620   -1.1670    1.5600 h1        1 DYE      0.089950
     51 H1         -4.6870   -0.6670    2.0680 h1        1 DYE      0.089950
     52 H2         -3.4640    0.5000   -0.5240 hc        1 DYE      0.047700
     53 H3         -4.7830    1.2140    0.4260 hc        1 DYE      0.047700
     54 H4         -2.4140    2.3390    0.3780 hc        1 DYE      0.044700
     55 H5         -1.8660    1.0480    1.4560 hc        1 DYE      0.044700
     56 H6         -2.3960    3.0450    2.7570 h1        1 DYE      0.074950
     57 H7         -3.9860    3.2410    1.9670 h1        1 DYE      0.074950
     58 H8         -7.8000   -3.7170   -1.6250 ha        1 DYE      0.137000
     59 H9         -6.6570   -0.0950    1.4720 ha        1 DYE      0.192500
     60 H10        -9.5580   -2.4020   -0.5350 ha        1 DYE      0.129500
     61 H11        -8.9600   -0.6100    1.0080 ha        1 DYE      0.138000
     62 H12        -5.0310   -2.1590   -3.0890 hc        1 DYE      0.055867
     63 H13        -4.0550   -3.6680   -3.1660 hc        1 DYE      0.055867
     64 H14        -5.8390   -3.7600   -3.2240 hc        1 DYE      0.055867
     65 H15        -5.0410   -4.8280    0.3840 hc        1 DYE      0.055867
     66 H16        -5.8550   -5.3630   -1.1290 hc        1 DYE      0.055867
     67 H17        -4.0690   -5.2980   -1.0540 hc        1 DYE      0.055867
     68 H18        -2.5640   -3.5750   -1.3700 ha        1 DYE      0.195000
     69 H19        -1.7640   -1.0120    0.0150 ha        1 DYE      0.140500
     70 H20         2.9060   -0.2590    0.3950 ha        1 DYE      0.140500
     71 H21         4.4230   -2.8630    0.5730 ha        1 DYE      0.195000
     72 H22         8.6410   -1.6110    3.5090 ha        1 DYE      0.137000
     73 H23         9.5580    0.5360    4.2610 ha        1 DYE      0.129500
     74 H24         6.6170    2.5990    2.0560 ha        1 DYE      0.192500
     75 H25         8.5290    2.6210    3.5180 ha        1 DYE      0.138000
     76 H26         4.3710    0.7840   -0.5960 h1        1 DYE      0.089950
     77 H27         4.0570    1.7960    0.8720 h1        1 DYE      0.089950
     78 H28         6.8300    1.8950   -0.4210 hc        1 DYE      0.047700
     79 H29         5.8070    3.2510    0.2000 hc        1 DYE      0.047700
     80 H30         5.5450    1.7790   -2.4950 hc        1 DYE      0.044700
     81 H31         4.3550    2.9900   -1.8850 hc        1 DYE      0.044700
     82 H32         7.3870    3.5920   -2.1280 h1        1 DYE      0.074950
     83 H33         6.0530    4.7640   -1.8320 h1        1 DYE      0.074950
     84 H34         7.7070   -1.9130   -0.0070 hc        1 DYE      0.055867
     85 H35         8.2090   -3.0430    1.2990 hc        1 DYE      0.055867
     86 H36         6.7810   -3.4260    0.2840 hc        1 DYE      0.055867
     87 H37         5.2510   -2.2220    3.6060 hc        1 DYE      0.055867
     88 H38         5.3370   -3.6380    2.5010 hc        1 DYE      0.055867
     89 H39         6.7530   -3.2040    3.4890 hc        1 DYE      0.055867
     90 H40        -0.3130   -4.5130   -0.4680 hc        1 DYE      0.069700
     91 H41        -0.7100   -3.9450   -2.1450 hc        1 DYE      0.069700
     92 H42         1.5340   -5.0200   -2.0270 hc        1 DYE      0.053200
     93 H43         1.5380   -3.3330   -2.6580 hc        1 DYE      0.053200
     94 H44         2.1860   -4.1640    0.2670 hc        1 DYE      0.069700
     95 H45         3.3310   -3.6620   -1.0470 hc        1 DYE      0.069700
@<TRIPOS>BOND
     1    1    2 1   
     2    1   13 1   
     3    1   50 1   
     4    1   51 1   
     5    2    3 1   
     6    2   52 1   
     7    2   53 1   
     8    3    4 1   
     9    3   54 1   
    10    3   55 1   
    11    4   42 1   
    12    4   56 1   
    13    4   57 1   
    14    5    6 ar  
    15    5    7 ar  
    16    5   11 1   
    17    6    8 ar  
    18    6   13 1   
    19    7    9 ar  
    20    7   58 1   
    21    8   10 ar  
    22    8   59 1   
    23    9   10 ar  
    24    9   60 1   
    25   10   61 1   
    26   11   12 1   
    27   11   14 1   
    28   11   15 1   
    29   12   13 2   
    30   12   16 1   
    31   14   62 1   
    32   14   63 1   
    33   14   64 1   
    34   15   65 1   
    35   15   66 1   
    36   15   67 1   
    37   16   17 2   
    38   16   68 1   
    39   17   18 1   
    40   17   69 1   
    41   18   20 2   
    42   18   38 1   
    43   19   20 1   
    44   19   21 2   
    45   19   40 1   
    46   20   41 1   
    47   21   22 1   
    48   21   70 1   
    49   22   23 2   
    50   22   71 1   
    51   23   24 1   
    52   23   27 1   
    53   24   25 1   
    54   24   32 1   
    55   25   26 ar  
    56   25   30 ar  
    57   26   27 1   
    58   26   28 ar  
    59   27   36 1   
    60   27   37 1   
    61   28   29 ar  
    62   28   72 1   
    63   29   31 ar  
    64   29   73 1   
    65   30   31 ar  
    66   30   74 1   
    67   31   75 1   
    68   32   33 1   
    69   32   76 1   
    70   32   77 1   
    71   33   34 1   
    72   33   78 1   
    73   33   79 1   
    74   34   35 1   
    75   34   80 1   
    76   34   81 1   
    77   35   46 1   
    78   35   82 1   
    79   35   83 1   
    80   36   84 1   
    81   36   85 1   
    82   36   86 1   
    83   37   87 1   
    84   37   88 1   
    85   37   89 1   
    86   38   39 1   
    87   38   90 1   
    88   38   91 1   
    89   39   40 1   
    90   39   92 1   
    91   39   93 1   
    92   40   94 1   
    93   40   95 1   
    94   42   43 1   
    95   42   44 1   
    96   42   45 1   
    97   46   47 1   
    98   46   48 1   
    99   46   49 1   
@<TRIPOS>SUBSTRUCTURE
     1 DYE         1 TEMP              0 ****  ****    0 ROOT
